 Abaqus/Standard 3DEXPERIENCE R2017x                  DATE 22-Apr-2019 TIME 17:33:07
 SUMMARY OF JOB INFORMATION:
 STEP  INC ATT SEVERE EQUIL TOTAL  TOTAL      STEP       INC OF       DOF    IF
               DISCON ITERS ITERS  TIME/    TIME/LPF    TIME/LPF    MONITOR RIKS
               ITERS               FREQ
   1     1   1     0     2     2  1.00e-005  1.00e-005  1.000e-005
   1     2   1     0     1     1  2.00e-005  2.00e-005  1.000e-005
   1     3   1     0     1     1  3.50e-005  3.50e-005  1.500e-005
   1     4   1     0     1     1  5.75e-005  5.75e-005  2.250e-005
   1     5   1     0     1     1  9.13e-005  9.13e-005  3.375e-005
   1     6   1     0     1     1  0.000142   0.000142   5.063e-005
   1     7   1     0     1     1  0.000218   0.000218   7.594e-005
   1     8   1     0     1     1  0.000332   0.000332   0.0001139 
   1     9   1     0     1     1  0.000503   0.000503   0.0001709 
   1    10   1     0     1     1  0.000759   0.000759   0.0002563 
   1    11   1     0     1     1  0.00114    0.00114    0.0003844 
   1    12   1     0     1     1  0.00172    0.00172    0.0005767 
   1    13   1     0     1     1  0.00258    0.00258    0.0008650 
   1    14   1     0     1     1  0.00388    0.00388    0.001297  
   1    15   1     0     1     1  0.00583    0.00583    0.001946  
   1    16   1     0     1     1  0.00875    0.00875    0.002919  
   1    17   1     0     1     1  0.0131     0.0131     0.004379  
   1    18   1     0     1     1  0.0197     0.0197     0.006568  
   1    19   1     0     1     1  0.0295     0.0295     0.009853  
   1    20   1     0     1     1  0.0443     0.0443     0.01478   
   1    21   1     0     1     1  0.0665     0.0665     0.02217   
   1    22   1     0     1     1  0.0997     0.0997     0.03325   
   1    23   1     0     1     1  0.150      0.150      0.04988   
   1    24   1     0     1     1  0.224      0.224      0.07482   
   1    25   1     0     2     2  0.337      0.337      0.1122    
   1    26   1     0     2     2  0.505      0.505      0.1683    
   1    27   1U    0     7     7  0.505      0.505      0.2525    
   1    27   2     0     2     2  0.568      0.568      0.06313   
   1    28   1     0     3     3  0.663      0.663      0.09469   
   1    29   1U    0     4     4  0.663      0.663      0.1420    
   1    29   2     0     3     3  0.698      0.698      0.03551   
   1    30   1U    0     5     5  0.698      0.698      0.05326   
   1    30   2     0     2     2  0.712      0.712      0.01332   
   1    31   1     0     2     2  0.732      0.732      0.01997   
   1    32   1U    0     4     4  0.732      0.732      0.02996   
   1    32   2     0     1     1  0.739      0.739      0.007490  
   1    33   1U    0     6     6  0.739      0.739      0.01124   
   1    33   2     0     1     1  0.742      0.742      0.002809  
   1    34   1     0     1     1  0.746      0.746      0.004213  
   1    35   1     0     1     1  0.752      0.752      0.006320  
   1    36   1U    0     5     5  0.752      0.752      0.009480  
   1    36   2     0     1     1  0.755      0.755      0.002370  
   1    37   1     0     1     1  0.758      0.758      0.003555  
   1    38   1     0     1     1  0.764      0.764      0.005332  
   1    39   1     0     2     2  0.772      0.772      0.007999  
   1    40   1U    0    10    10  0.772      0.772      0.01200   
   1    40   2     0     1     1  0.775      0.775      0.002999  
   1    41   1     0     3     3  0.779      0.779      0.004499  
   1    42   1     0     6     6  0.786      0.786      0.006749  
   1    43   1     0     3     3  0.793      0.793      0.006749  
   1    44   1     0     3     3  0.799      0.799      0.006749  
   1    45   1     0     3     3  0.810      0.810      0.01012   
   1    46   1     0     5     5  0.825      0.825      0.01518   
   1    47   1     0     5     5  0.840      0.840      0.01518   
   1    48   1     0     5     5  0.855      0.855      0.01518   
   1    49   1     0     4     4  0.870      0.870      0.01518   
   1    50   1     0     4     4  0.886      0.886      0.01518   
   1    51   1     0     4     4  0.908      0.908      0.02278   
   1    52   1     0     4     4  0.942      0.942      0.03417   
   1    53   1     0     4     4  0.994      0.994      0.05125   
   1    54   1     0     3     3  1.00       1.00       0.006293  
                          
 THE ANALYSIS HAS COMPLETED SUCCESSFULLY
