 Abaqus/Standard 3DEXPERIENCE R2017x                  DATE 22-Apr-2019 TIME 22:39:43
 SUMMARY OF JOB INFORMATION:
 STEP  INC ATT SEVERE EQUIL TOTAL  TOTAL      STEP       INC OF       DOF    IF
               DISCON ITERS ITERS  TIME/    TIME/LPF    TIME/LPF    MONITOR RIKS
               ITERS               FREQ
   1     1   1     0     2     2  1.00e-005  1.00e-005  1.000e-005
   1     2   1     0     1     1  2.00e-005  2.00e-005  1.000e-005
   1     3   1     0     1     1  3.50e-005  3.50e-005  1.500e-005
   1     4   1     0     1     1  5.75e-005  5.75e-005  2.250e-005
   1     5   1     0     1     1  9.13e-005  9.13e-005  3.375e-005
   1     6   1     0     1     1  0.000142   0.000142   5.063e-005
   1     7   1     0     1     1  0.000218   0.000218   7.594e-005
   1     8   1     0     1     1  0.000332   0.000332   0.0001139 
   1     9   1     0     1     1  0.000503   0.000503   0.0001709 
   1    10   1     0     1     1  0.000759   0.000759   0.0002563 
   1    11   1     0     1     1  0.00114    0.00114    0.0003844 
   1    12   1     0     1     1  0.00172    0.00172    0.0005767 
   1    13   1     0     1     1  0.00258    0.00258    0.0008650 
   1    14   1     0     1     1  0.00388    0.00388    0.001297  
   1    15   1     0     1     1  0.00583    0.00583    0.001946  
   1    16   1     0     1     1  0.00875    0.00875    0.002919  
   1    17   1     0     1     1  0.0131     0.0131     0.004379  
   1    18   1     0     1     1  0.0197     0.0197     0.006568  
   1    19   1     0     1     1  0.0295     0.0295     0.009853  
   1    20   1     0     1     1  0.0443     0.0443     0.01478   
   1    21   1     0     1     1  0.0665     0.0665     0.02217   
   1    22   1     0     1     1  0.0997     0.0997     0.03325   
   1    23   1     0     1     1  0.150      0.150      0.04988   
   1    24   1     0     1     1  0.224      0.224      0.07482   
   1    25   1     0     2     2  0.337      0.337      0.1122    
   1    26   1     0     5     5  0.505      0.505      0.1683    
   1    27   1U    0     4     4  0.505      0.505      0.1683    
   1    27   2     0     3     3  0.547      0.547      0.04209   
   1    28   1U    0     6     6  0.547      0.547      0.04209   
   1    28   2     0     2     2  0.558      0.558      0.01052   
   1    29   1     0     2     2  0.573      0.573      0.01578   
   1    30   1     0     2     2  0.597      0.597      0.02367   
   1    31   1     0     3     3  0.633      0.633      0.03551   
   1    32   1U    0     8     8  0.633      0.633      0.05326   
   1    32   2     0     2     2  0.646      0.646      0.01332   
   1    33   1U    0     4     4  0.646      0.646      0.01997   
   1    33   2     0     1     1  0.651      0.651      0.004994  
   1    34   1     0     1     1  0.658      0.658      0.007490  
   1    35   1     0     3     3  0.670      0.670      0.01124   
   1    36   1     0     2     2  0.686      0.686      0.01685   
   1    37   1     0     2     2  0.712      0.712      0.02528   
   1    38   1     0     3     3  0.750      0.750      0.03792   
   1    39   1     0     4     4  0.807      0.807      0.05688   
   1    40   1     0     4     4  0.892      0.892      0.08532   
   1    41   1     0     4     4  1.00       1.00       0.1081    
                          
 THE ANALYSIS HAS COMPLETED SUCCESSFULLY
