 Abaqus/Standard 3DEXPERIENCE R2017x                  DATE 22-Apr-2019 TIME 15:44:12
 SUMMARY OF JOB INFORMATION:
 STEP  INC ATT SEVERE EQUIL TOTAL  TOTAL      STEP       INC OF       DOF    IF
               DISCON ITERS ITERS  TIME/    TIME/LPF    TIME/LPF    MONITOR RIKS
               ITERS               FREQ
   1     1   1     0     2     2  1.00e-005  1.00e-005  1.000e-005
   1     2   1     0     1     1  2.00e-005  2.00e-005  1.000e-005
   1     3   1     0     1     1  3.50e-005  3.50e-005  1.500e-005
   1     4   1     0     1     1  5.75e-005  5.75e-005  2.250e-005
   1     5   1     0     1     1  9.13e-005  9.13e-005  3.375e-005
   1     6   1     0     1     1  0.000142   0.000142   5.063e-005
   1     7   1     0     1     1  0.000218   0.000218   7.594e-005
   1     8   1     0     1     1  0.000332   0.000332   0.0001139 
   1     9   1     0     1     1  0.000503   0.000503   0.0001709 
   1    10   1     0     1     1  0.000759   0.000759   0.0002563 
   1    11   1     0     1     1  0.00114    0.00114    0.0003844 
   1    12   1     0     1     1  0.00172    0.00172    0.0005767 
   1    13   1     0     1     1  0.00258    0.00258    0.0008650 
   1    14   1     0     1     1  0.00388    0.00388    0.001297  
   1    15   1     0     1     1  0.00583    0.00583    0.001946  
   1    16   1     0     1     1  0.00875    0.00875    0.002919  
   1    17   1     0     1     1  0.0131     0.0131     0.004379  
   1    18   1     0     1     1  0.0197     0.0197     0.006568  
   1    19   1     0     1     1  0.0295     0.0295     0.009853  
   1    20   1     0     1     1  0.0443     0.0443     0.01478   
   1    21   1     0     1     1  0.0665     0.0665     0.02217   
   1    22   1     0     1     1  0.0997     0.0997     0.03325   
   1    23   1     0     1     1  0.150      0.150      0.04988   
   1    24   1     0     1     1  0.224      0.224      0.07482   
   1    25   1     0     2     2  0.337      0.337      0.1122    
   1    26   1     0     2     2  0.505      0.505      0.1683    
   1    27   1     0     4     4  0.758      0.758      0.2525    
   1    28   1U    0     4     4  0.758      0.758      0.2425    
   1    28   2U    0     6     6  0.758      0.758      0.06062   
   1    28   3     0     3     3  0.773      0.773      0.01515   
   1    29   1U    0     5     5  0.773      0.773      0.02273   
   1    29   2     0     1     1  0.778      0.778      0.005683  
   1    30   1     0     2     2  0.787      0.787      0.008525  
   1    31   1U    0     4     4  0.787      0.787      0.01279   
   1    31   2     0     1     1  0.790      0.790      0.003197  
   1    32   1     0     1     1  0.795      0.795      0.004795  
   1    33   1U    0     4     4  0.795      0.795      0.007193  
   1    33   2     0     2     2  0.797      0.797      0.001798  
   1    34   1U    0     4     4  0.797      0.797      0.002697  
   1    34   2     0     2     2  0.797      0.797      0.0006743 
   1    35   1U    0     4     4  0.797      0.797      0.001011  
   1    35   2     0     1     1  0.798      0.798      0.0002529 
   1    36   1     0     1     1  0.798      0.798      0.0003793 
   1    37   1     0     1     1  0.799      0.799      0.0005689 
   1    38   1U    0     4     4  0.799      0.799      0.0008534 
   1    38   2     0     1     1  0.799      0.799      0.0002134 
   1    39   1     0     1     1  0.799      0.799      0.0003200 
   1    40   1     0     1     1  0.800      0.800      0.0004800 
   1    41   1     0     2     2  0.800      0.800      0.0007201 
   1    42   1     0    12    12  0.801      0.801      0.001080  
   1    43   1     0     2     2  0.802      0.802      0.0008101 
   1    44   1     0     2     2  0.803      0.803      0.0008101 
   1    45   1     0     4     4  0.804      0.804      0.001215  
   1    46   1U    0     6     6  0.804      0.804      0.001823  
   1    46   2     0     1     1  0.805      0.805      0.0004557 
   1    47   1     0     2     2  0.805      0.805      0.0006835 
   1    48   1     0     4     4  0.806      0.806      0.001025  
   1    49   1     0     5     5  0.808      0.808      0.001538  
   1    50   1     0     4     4  0.809      0.809      0.001538  
   1    51   1U    0     4     4  0.809      0.809      0.001538  
   1    51   2     0     2     2  0.810      0.810      0.0003845 
   1    52   1     0     7     7  0.810      0.810      0.0005767 
   1    53   1     0     2     2  0.811      0.811      0.0005767 
   1    54   1     0     2     2  0.812      0.812      0.0005767 
   1    55   1     0     7     7  0.812      0.812      0.0008651 
   1    56   1     0     4     4  0.813      0.813      0.0008651 
   1    57   1     0     3     3  0.814      0.814      0.0008651 
   1    58   1     0    12    12  0.815      0.815      0.001298  
   1    59   1     0     3     3  0.816      0.816      0.0009732 
   1    60   1     0     2     2  0.817      0.817      0.0009732 
   1    61   1     0     3     3  0.819      0.819      0.001460  
   1    62   1     0     3     3  0.821      0.821      0.002190  
   1    63   1     0     4     4  0.824      0.824      0.003285  
   1    64   1     0     9     9  0.829      0.829      0.004927  
   1    65   1     0    10    10  0.834      0.834      0.004927  
   1    66   1     0     4     4  0.839      0.839      0.004927  
   1    67   1     0     4     4  0.844      0.844      0.004927  
   1    68   1     0     5     5  0.851      0.851      0.007390  
   1    69   1     0     5     5  0.859      0.859      0.007390  
   1    70   1     0     5     5  0.866      0.866      0.007390  
   1    71   1     0     5     5  0.874      0.874      0.007390  
   1    72   1     0     4     4  0.881      0.881      0.007390  
   1    73   1     0     3     3  0.888      0.888      0.007390  
   1    74   1     0     4     4  0.899      0.899      0.01109   
   1    75   1     0     5     5  0.916      0.916      0.01663   
   1    76   1     0     4     4  0.933      0.933      0.01663   
   1    77   1     0     3     3  0.949      0.949      0.01663   
   1    78   1U    0     4     4  0.949      0.949      0.02494   
   1    78   2U    0     9     9  0.949      0.949      0.006235  
   1    78   3     0     3     3  0.952      0.952      0.003118  
   1    79   1U    0     4     4  0.952      0.952      0.004677  
   1    79   2     0     2     2  0.954      0.954      0.001169  
   1    80   1     0     2     2  0.955      0.955      0.001754  
   1    81   1     0     3     3  0.958      0.958      0.002631  
   1    82   1     0     2     2  0.962      0.962      0.003946  
   1    83   1     0     3     3  0.968      0.968      0.005919  
   1    84   1     0     4     4  0.977      0.977      0.008878  
   1    85   1     0     3     3  0.990      0.990      0.01332   
   1    86   1     0     3     3  1.00       1.00       0.009923  
                          
 THE ANALYSIS HAS COMPLETED SUCCESSFULLY
