 Abaqus/Standard 3DEXPERIENCE R2017x                  DATE 22-Apr-2019 TIME 13:39:10
 SUMMARY OF JOB INFORMATION:
 STEP  INC ATT SEVERE EQUIL TOTAL  TOTAL      STEP       INC OF       DOF    IF
               DISCON ITERS ITERS  TIME/    TIME/LPF    TIME/LPF    MONITOR RIKS
               ITERS               FREQ
   1     1   1     0     2     2  1.00e-005  1.00e-005  1.000e-005
   1     2   1     0     1     1  2.00e-005  2.00e-005  1.000e-005
   1     3   1     0     1     1  3.50e-005  3.50e-005  1.500e-005
   1     4   1     0     1     1  5.75e-005  5.75e-005  2.250e-005
   1     5   1     0     1     1  9.13e-005  9.13e-005  3.375e-005
   1     6   1     0     1     1  0.000142   0.000142   5.063e-005
   1     7   1     0     1     1  0.000218   0.000218   7.594e-005
   1     8   1     0     1     1  0.000332   0.000332   0.0001139 
   1     9   1     0     1     1  0.000503   0.000503   0.0001709 
   1    10   1     0     1     1  0.000759   0.000759   0.0002563 
   1    11   1     0     1     1  0.00114    0.00114    0.0003844 
   1    12   1     0     1     1  0.00172    0.00172    0.0005767 
   1    13   1     0     1     1  0.00258    0.00258    0.0008650 
   1    14   1     0     1     1  0.00388    0.00388    0.001297  
   1    15   1     0     1     1  0.00583    0.00583    0.001946  
   1    16   1     0     1     1  0.00875    0.00875    0.002919  
   1    17   1     0     1     1  0.0131     0.0131     0.004379  
   1    18   1     0     1     1  0.0197     0.0197     0.006568  
   1    19   1     0     1     1  0.0295     0.0295     0.009853  
   1    20   1     0     1     1  0.0443     0.0443     0.01478   
   1    21   1     0     1     1  0.0665     0.0665     0.02217   
   1    22   1     0     1     1  0.0997     0.0997     0.03325   
   1    23   1     0     1     1  0.150      0.150      0.04988   
   1    24   1     0     1     1  0.224      0.224      0.07482   
   1    25   1     0     1     1  0.337      0.337      0.1122    
   1    26   1     0     2     2  0.505      0.505      0.1683    
   1    27   1     0     3     3  0.758      0.758      0.2525    
   1    28   1U    0     4     4  0.758      0.758      0.2425    
   1    28   2     0     3     3  0.818      0.818      0.06062   
   1    29   1     0     3     3  0.909      0.909      0.09093   
   1    30   1U    0     4     4  0.909      0.909      0.09093   
   1    30   2U    0     5     5  0.909      0.909      0.02273   
   1    30   3U    0     6     6  0.909      0.909      0.005683  
   1    30   4     0     2     2  0.910      0.910      0.001421  
   1    31   1     0     1     1  0.913      0.913      0.002131  
   1    32   1U    0     5     5  0.913      0.913      0.003197  
   1    32   2     0     1     1  0.913      0.913      0.0007992 
   1    33   1     0     1     1  0.915      0.915      0.001199  
   1    34   1     0     1     1  0.916      0.916      0.001798  
   1    35   1     0     1     1  0.919      0.919      0.002697  
   1    36   1     0     1     1  0.923      0.923      0.004046  
   1    37   1U    0     4     4  0.923      0.923      0.006069  
   1    37   2     0     1     1  0.925      0.925      0.001517  
   1    38   1U    0     4     4  0.925      0.925      0.002276  
   1    38   2     0     1     1  0.925      0.925      0.0005689 
   1    39   1     0     1     1  0.926      0.926      0.0008534 
   1    40   1     0     1     1  0.927      0.927      0.001280  
   1    41   1U    0     4     4  0.927      0.927      0.001920  
   1    41   2     0     1     1  0.928      0.928      0.0004800 
   1    42   1     0     1     1  0.929      0.929      0.0007201 
   1    43   1     0     1     1  0.930      0.930      0.001080  
   1    44   1U    0     4     4  0.930      0.930      0.001620  
   1    44   2     0     1     1  0.930      0.930      0.0004050 
   1    45   1     0     1     1  0.931      0.931      0.0006076 
   1    46   1     0     1     1  0.932      0.932      0.0009113 
   1    47   1U    0     5     5  0.932      0.932      0.001367  
   1    47   2     0     1     1  0.932      0.932      0.0003418 
   1    48   1     0     1     1  0.932      0.932      0.0005126 
   1    49   1     0     1     1  0.933      0.933      0.0007689 
   1    50   1     0     2     2  0.934      0.934      0.001153  
   1    51   1U    0     4     4  0.934      0.934      0.001730  
   1    51   2     0     1     1  0.935      0.935      0.0004325 
   1    52   1     0     1     1  0.935      0.935      0.0006488 
   1    53   1     0     2     2  0.936      0.936      0.0009732 
   1    54   1U    0     4     4  0.936      0.936      0.001460  
   1    54   2     0     1     1  0.937      0.937      0.0003649 
   1    55   1     0     2     2  0.937      0.937      0.0005474 
   1    56   1     0     2     2  0.938      0.938      0.0008211 
   1    57   1U    0     5     5  0.938      0.938      0.001232  
   1    57   2     0     1     1  0.938      0.938      0.0003079 
   1    58   1     0     1     1  0.939      0.939      0.0004619 
   1    59   1     0     1     1  0.940      0.940      0.0006928 
   1    60   1U    0     4     4  0.940      0.940      0.001039  
   1    60   2     0     1     1  0.940      0.940      0.0002598 
   1    61   1     0     1     1  0.940      0.940      0.0003897 
   1    62   1     0     2     2  0.941      0.941      0.0005846 
   1    63   1U    0     4     4  0.941      0.941      0.0008769 
   1    63   2     0     1     1  0.941      0.941      0.0002192 
   1    64   1     0     4     4  0.941      0.941      0.0003288 
   1    65   1     0     3     3  0.942      0.942      0.0004932 
   1    66   1     0    10    10  0.943      0.943      0.0007398 
   1    67   1     0     3     3  0.943      0.943      0.0007398 
   1    68   1     0     6     6  0.944      0.944      0.0007398 
   1    69   1     0     5     5  0.945      0.945      0.0007398 
   1    70   1     0    11    11  0.946      0.946      0.0007398 
   1    71   1U    0     7     7  0.946      0.946      0.0005549 
   1    71   2     0     2     2  0.946      0.946      0.0001387 
   1    72   1     0     1     1  0.946      0.946      0.0001387 
   1    73   1     0     3     3  0.946      0.946      0.0002081 
   1    74   1     0     8     8  0.946      0.946      0.0003121 
   1    75   1     0     2     2  0.947      0.947      0.0003121 
   1    76   1     0     4     4  0.947      0.947      0.0003121 
   1    77   1     0     3     3  0.947      0.947      0.0004682 
   1    78   1     0     3     3  0.948      0.948      0.0007023 
   1    79   1U    0     6     6  0.948      0.948      0.001053  
   1    79   2     0     3     3  0.948      0.948      0.0002634 
   1    80   1     0     3     3  0.949      0.949      0.0003950 
   1    81   1     0     5     5  0.949      0.949      0.0005925 
   1    82   1     0     3     3  0.950      0.950      0.0005925 
   1    83   1     0     7     7  0.951      0.951      0.0005925 
   1    84   1     0    10    10  0.951      0.951      0.0005925 
   1    85   1     0     4     4  0.952      0.952      0.0005925 
   1    86   1     0     4     4  0.952      0.952      0.0005925 
   1    87   1U    0     4     4  0.952      0.952      0.0008888 
   1    87   2U    0     5     5  0.952      0.952      0.0002222 
   1    87   3     0     3     3  0.952      0.952      5.555e-005
   1    88   1     0     1     1  0.953      0.953      8.333e-005
   1    89   1     0     2     2  0.953      0.953      0.0001250 
   1    90   1     0     1     1  0.953      0.953      0.0001875 
   1    91   1     0     2     2  0.953      0.953      0.0002812 
   1    92   1     0     5     5  0.954      0.954      0.0004218 
   1    93   1     0     3     3  0.954      0.954      0.0004218 
   1    94   1     0     2     2  0.954      0.954      0.0004218 
   1    95   1     0     4     4  0.955      0.955      0.0006328 
   1    96   1     0     4     4  0.956      0.956      0.0009491 
   1    97   1     0     9     9  0.957      0.957      0.001424  
   1    98   1U    0     4     4  0.957      0.957      0.001424  
   1    98   2     0     5     5  0.958      0.958      0.0003559 
   1    99   1     0     2     2  0.958      0.958      0.0003559 
   1   100   1     0     4     4  0.958      0.958      0.0003559 
   1   101   1     0     3     3  0.959      0.959      0.0005339 
   1   102   1     0     4     4  0.960      0.960      0.0008008 
   1   103   1     0    12    12  0.961      0.961      0.001201  
   1   104   1U    0     9     9  0.961      0.961      0.0009009 
   1   104   2     0     2     2  0.961      0.961      0.0004505 
   1   105   1     0     2     2  0.962      0.962      0.0004505 
   1   106   1     0     4     4  0.963      0.963      0.0006757 
   1   107   1     0     3     3  0.964      0.964      0.001014  
   1   108   1U    0     9     9  0.964      0.964      0.001520  
   1   108   2     0     2     2  0.964      0.964      0.0007602 
   1   109   1     0    10    10  0.965      0.965      0.001140  
   1   110   1     0     3     3  0.967      0.967      0.001140  
   1   111   1     0     3     3  0.968      0.968      0.001140  
   1   112   1U    0     4     4  0.968      0.968      0.001710  
   1   112   2     0     2     2  0.968      0.968      0.0004276 
   1   113   1U    0     4     4  0.968      0.968      0.0006414 
   1   113   2     0     1     1  0.968      0.968      0.0001603 
   1   114   1     0     2     2  0.969      0.969      0.0002405 
   1   115   1     0     4     4  0.969      0.969      0.0003608 
   1   116   1     0     2     2  0.970      0.970      0.0005412 
   1   117   1     0     3     3  0.970      0.970      0.0008118 
   1   118   1     0     3     3  0.972      0.972      0.001218  
   1   119   1U    0     7     7  0.972      0.972      0.001826  
   1   119   2     0     2     2  0.972      0.972      0.0004566 
   1   120   1     0     2     2  0.973      0.973      0.0006849 
   1   121   1U    0     9     9  0.973      0.973      0.001027  
   1   121   2     0     5     5  0.973      0.973      0.0005137 
   1   122   1     0     3     3  0.974      0.974      0.0005137 
   1   123   1     0     2     2  0.974      0.974      0.0005137 
   1   124   1     0     4     4  0.975      0.975      0.0007705 
   1   125   1     0     5     5  0.976      0.976      0.001156  
   1   126   1     0    10    10  0.977      0.977      0.001156  
   1   127   1     0     3     3  0.978      0.978      0.001156  
   1   128   1     0     4     4  0.980      0.980      0.001156  
   1   129   1     0     6     6  0.981      0.981      0.001734  
   1   130   1U    0     5     5  0.981      0.981      0.001734  
   1   130   2     0     2     2  0.982      0.982      0.0004334 
   1   131   1     0     2     2  0.982      0.982      0.0004334 
   1   132   1     0     4     4  0.983      0.983      0.0006501 
   1   133   1     0     7     7  0.984      0.984      0.0009752 
   1   134   1     0     6     6  0.985      0.985      0.0009752 
   1   135   1     0     2     2  0.986      0.986      0.0009752 
   1   136   1U    0     4     4  0.986      0.986      0.0009752 
   1   136   2     0     1     1  0.986      0.986      0.0002438 
   1   137   1     0     1     1  0.986      0.986      0.0003657 
   1   138   1     0     7     7  0.987      0.987      0.0005486 
   1   139   1     0     2     2  0.987      0.987      0.0005486 
   1   140   1     0     2     2  0.988      0.988      0.0005486 
   1   141   1     0     2     2  0.989      0.989      0.0008228 
   1   142   1     0     8     8  0.990      0.990      0.001234  
   1   143   1     0     2     2  0.991      0.991      0.001234  
   1   144   1     0    10    10  0.993      0.993      0.001234  
   1   145   1     0     5     5  0.994      0.994      0.001234  
   1   146   1     0    10    10  0.995      0.995      0.001234  
   1   147   1     0     6     6  0.996      0.996      0.001234  
   1   148   1     0     9     9  0.998      0.998      0.001234  
   1   149   1     0    10    10  0.999      0.999      0.001234  
   1   150   1     0    10    10  1.00       1.00       0.001234  
   1   151   1     0     1     1  1.00       1.00       2.738e-005
                          
 THE ANALYSIS HAS COMPLETED SUCCESSFULLY
