 Abaqus/Standard 3DEXPERIENCE R2017x                  DATE 22-Apr-2019 TIME 15:35:32
 SUMMARY OF JOB INFORMATION:
 STEP  INC ATT SEVERE EQUIL TOTAL  TOTAL      STEP       INC OF       DOF    IF
               DISCON ITERS ITERS  TIME/    TIME/LPF    TIME/LPF    MONITOR RIKS
               ITERS               FREQ
   1     1   1     0     2     2  1.00e-005  1.00e-005  1.000e-005
   1     2   1     0     1     1  2.00e-005  2.00e-005  1.000e-005
   1     3   1     0     1     1  3.50e-005  3.50e-005  1.500e-005
   1     4   1     0     1     1  5.75e-005  5.75e-005  2.250e-005
   1     5   1     0     1     1  9.13e-005  9.13e-005  3.375e-005
   1     6   1     0     1     1  0.000142   0.000142   5.063e-005
   1     7   1     0     1     1  0.000218   0.000218   7.594e-005
   1     8   1     0     1     1  0.000332   0.000332   0.0001139 
   1     9   1     0     1     1  0.000503   0.000503   0.0001709 
   1    10   1     0     1     1  0.000759   0.000759   0.0002563 
   1    11   1     0     1     1  0.00114    0.00114    0.0003844 
   1    12   1     0     1     1  0.00172    0.00172    0.0005767 
   1    13   1     0     1     1  0.00258    0.00258    0.0008650 
   1    14   1     0     1     1  0.00388    0.00388    0.001297  
   1    15   1     0     1     1  0.00583    0.00583    0.001946  
   1    16   1     0     1     1  0.00875    0.00875    0.002919  
   1    17   1     0     1     1  0.0131     0.0131     0.004379  
   1    18   1     0     1     1  0.0197     0.0197     0.006568  
   1    19   1     0     1     1  0.0295     0.0295     0.009853  
   1    20   1     0     1     1  0.0443     0.0443     0.01478   
   1    21   1     0     1     1  0.0665     0.0665     0.02217   
   1    22   1     0     1     1  0.0997     0.0997     0.03325   
   1    23   1     0     1     1  0.150      0.150      0.04988   
   1    24   1     0     1     1  0.224      0.224      0.07482   
   1    25   1     0     2     2  0.337      0.337      0.1122    
   1    26   1     0     2     2  0.505      0.505      0.1683    
   1    27   1     0     3     3  0.758      0.758      0.2525    
   1    28   1U    0     5     5  0.758      0.758      0.2425    
   1    28   2     0     3     3  0.818      0.818      0.06062   
   1    29   1U    0     4     4  0.818      0.818      0.09093   
   1    29   2U    0     7     7  0.818      0.818      0.02273   
   1    29   3     0     3     3  0.824      0.824      0.005683  
   1    30   1     0     1     1  0.832      0.832      0.008525  
   1    31   1U    0     8     8  0.832      0.832      0.01279   
   1    31   2U    0     6     6  0.832      0.832      0.003197  
   1    31   3     0     2     2  0.833      0.833      0.0007992 
   1    32   1     0     1     1  0.834      0.834      0.001199  
   1    33   1     0     1     1  0.836      0.836      0.001798  
   1    34   1     0     1     1  0.839      0.839      0.002697  
   1    35   1     0     1     1  0.843      0.843      0.004046  
   1    36   1U    0     4     4  0.843      0.843      0.006069  
   1    36   2     0     1     1  0.844      0.844      0.001517  
   1    37   1     0     3     3  0.847      0.847      0.002276  
   1    38   1U    0     7     7  0.847      0.847      0.003414  
   1    38   2     0     1     1  0.848      0.848      0.0008534 
   1    39   1     0     3     3  0.849      0.849      0.001280  
   1    40   1     0     1     1  0.851      0.851      0.001920  
   1    41   1U    0     9     9  0.851      0.851      0.002880  
   1    41   2     0     1     1  0.851      0.851      0.0007201 
   1    42   1     0     1     1  0.853      0.853      0.001080  
   1    43   1     0     1     1  0.854      0.854      0.001620  
   1    44   1     0     3     3  0.857      0.857      0.002430  
   1    45   1     0     4     4  0.860      0.860      0.003645  
   1    46   1U    0     4     4  0.860      0.860      0.005468  
   1    46   2     0     2     2  0.862      0.862      0.001367  
   1    47   1     0     2     2  0.864      0.864      0.002051  
   1    48   1     0     3     3  0.867      0.867      0.003076  
   1    49   1     0     4     4  0.871      0.871      0.004614  
   1    50   1     0     5     5  0.878      0.878      0.006920  
   1    51   1     0     5     5  0.885      0.885      0.006920  
   1    52   1     0     5     5  0.892      0.892      0.006920  
   1    53   1     0     5     5  0.899      0.899      0.006920  
   1    54   1     0     5     5  0.906      0.906      0.006920  
   1    55   1     0     4     4  0.913      0.913      0.006920  
   1    56   1     0     5     5  0.920      0.920      0.006920  
   1    57   1     0     4     4  0.927      0.927      0.006920  
   1    58   1     0     3     3  0.934      0.934      0.006920  
   1    59   1     0     4     4  0.944      0.944      0.01038   
   1    60   1     0     4     4  0.960      0.960      0.01557   
   1    61   1U    0     4     4  0.960      0.960      0.02336   
   1    61   2     0     2     2  0.965      0.965      0.005839  
   1    62   1     0     3     3  0.974      0.974      0.008759  
   1    63   1U    0     4     4  0.974      0.974      0.01314   
   1    63   2     0     2     2  0.977      0.977      0.003285  
   1    64   1U    0     4     4  0.977      0.977      0.004927  
   1    64   2     0     1     1  0.979      0.979      0.001232  
   1    65   1     0     2     2  0.981      0.981      0.001848  
   1    66   1U    0     4     4  0.981      0.981      0.002771  
   1    66   2     0     1     1  0.981      0.981      0.0006928 
   1    67   1     0     2     2  0.982      0.982      0.001039  
   1    68   1     0     1     1  0.984      0.984      0.001559  
   1    69   1     0     2     2  0.986      0.986      0.002338  
   1    70   1     0     2     2  0.990      0.990      0.003507  
   1    71   1     0     2     2  0.995      0.995      0.005261  
   1    72   1     0     2     2  1.00       1.00       0.005065  
                          
 THE ANALYSIS HAS COMPLETED SUCCESSFULLY
