1

   Abaqus 3DEXPERIENCE R2017x                                  Date 22-Apr-2019   Time 20:17:43
   For use by Supplied by Team-SolidSQUAD under license from Dassault Systemes or its subsidiary.

                                                                                 
                                                                                 
 STEP    1     INCREMENT     1     STEP TIME    0.00    


                        S T E P       1     S T A T I C   A N A L Y S I S


                                                                                          

     AUTOMATIC TIME CONTROL WITH -
          A SUGGESTED INITIAL TIME INCREMENT OF                1.000E-05
          AND A TOTAL TIME PERIOD OF                            1.00    
          THE MINIMUM TIME INCREMENT ALLOWED IS                1.000E-20
          THE MAXIMUM TIME INCREMENT ALLOWED IS                 1.00    

     LINEAR EQUATION SOLVER TYPE         DIRECT SPARSE

 CONVERGENCE TOLERANCE PARAMETERS FOR FORCE    
     CRITERION FOR RESIDUAL FORCE     FOR A NONLINEAR PROBLEM          5.000E-03
     CRITERION FOR DISP.    CORRECTION IN A NONLINEAR PROBLEM          1.000E-02
     INITIAL VALUE OF TIME AVERAGE FORCE                               1.000E-02
     AVERAGE FORCE     IS TIME AVERAGE FORCE    
     ALTERNATE CRIT. FOR RESIDUAL FORCE     FOR A NONLINEAR PROBLEM    2.000E-02
     CRITERION FOR ZERO FORCE     RELATIVE TO TIME AVRG. FORCE         1.000E-05
     CRITERION FOR RESIDUAL FORCE     WHEN THERE IS ZERO FLUX          1.000E-05
     CRITERION FOR DISP.    CORRECTION WHEN THERE IS ZERO FLUX         1.000E-03
     CRITERION FOR RESIDUAL FORCE     FOR A LINEAR INCREMENT           1.000E-08
     FIELD CONVERSION RATIO                                             1.00    
     CRITERION FOR ZERO FORCE     REL. TO TIME AVRG. MAX. FORCE        1.000E-05
     CRITERION FOR ZERO DISP.    RELATIVE TO CHARACTERISTIC LENGTH     1.000E-08

 CONVERGENCE TOLERANCE PARAMETERS FOR MOMENT   
     CRITERION FOR RESIDUAL MOMENT    FOR A NONLINEAR PROBLEM          5.000E-03
     CRITERION FOR ROTATION CORRECTION IN A NONLINEAR PROBLEM          1.000E-02
     INITIAL VALUE OF TIME AVERAGE MOMENT                              1.000E-02
     AVERAGE MOMENT    IS TIME AVERAGE MOMENT   
     ALTERNATE CRIT. FOR RESIDUAL MOMENT    FOR A NONLINEAR PROBLEM    2.000E-02
     CRITERION FOR ZERO MOMENT    RELATIVE TO TIME AVRG. MOMENT        1.000E-05
     CRITERION FOR RESIDUAL MOMENT    WHEN THERE IS ZERO FLUX          1.000E-05
     CRITERION FOR ROTATION CORRECTION WHEN THERE IS ZERO FLUX         1.000E-03
     CRITERION FOR RESIDUAL MOMENT    FOR A LINEAR INCREMENT           1.000E-08
     FIELD CONVERSION RATIO                                             1.00    
     CRITERION FOR ZERO MOMENT    REL. TO TIME AVRG. MAX. MOMENT       1.000E-05

     VOLUMETRIC STRAIN COMPATIBILITY TOLERANCE FOR HYBRID SOLIDS       1.000E-05
     AXIAL STRAIN COMPATIBILITY TOLERANCE FOR HYBRID BEAMS             1.000E-05
     TRANS. SHEAR STRAIN COMPATIBILITY TOLERANCE FOR HYBRID BEAMS      1.000E-05
     SOFT CONTACT CONSTRAINT COMPATIBILITY TOLERANCE FOR P>P0          5.000E-03
     SOFT CONTACT CONSTRAINT COMPATIBILITY TOLERANCE FOR P=0.0         0.100    
     CONTACT FORCE ERROR TOLERANCE FOR CONVERT SDI=YES                 1.00    
     DISPLACEMENT COMPATIBILITY TOLERANCE FOR DCOUP ELEMENTS           1.000E-05
     ROTATION COMPATIBILITY TOLERANCE FOR DCOUP ELEMENTS               1.000E-05

 EQUILIBRIUM WILL BE CHECKED FOR SEVERE DISCONTINUITY ITERATIONS

 TIME INCREMENTATION CONTROL PARAMETERS:
     FIRST EQUILIBRIUM ITERATION FOR CONSECUTIVE DIVERGENCE CHECK              4
     EQUILIBRIUM ITERATION AT WHICH LOG. CONVERGENCE RATE CHECK BEGINS         8
     EQUILIBRIUM ITERATION AFTER WHICH ALTERNATE RESIDUAL IS USED              9
     MAXIMUM EQUILIBRIUM ITERATIONS ALLOWED                                   16
     EQUILIBRIUM ITERATION COUNT FOR CUT-BACK IN NEXT INCREMENT               10
     MAXIMUM EQUILIB. ITERS IN TWO INCREMENTS FOR TIME INCREMENT INCREASE      4
     MAXIMUM ITERATIONS FOR SEVERE DISCONTINUITIES                            50
     MAXIMUM ATTEMPTS ALLOWED IN AN INCREMENT                                  5
     MAXIMUM DISCON. ITERS IN TWO INCREMENTS FOR TIME INCREMENT INCREASE      50
     MAXIMUM CONTACT AUGMENTATIONS FOR *SURFACE BEHAVIOR,AUGMENTED LAGRANGE   50
     CUT-BACK FACTOR AFTER DIVERGENCE                                 0.2500    
     CUT-BACK FACTOR FOR TOO SLOW CONVERGENCE                         0.5000    
     CUT-BACK FACTOR AFTER TOO MANY EQUILIBRIUM ITERATIONS            0.7500    
     CUT-BACK FACTOR AFTER TOO MANY SEVERE DISCONTINUITY ITERATIONS   0.2500    
     CUT-BACK FACTOR AFTER PROBLEMS IN ELEMENT ASSEMBLY               0.2500    
     INCREASE FACTOR AFTER TWO INCREMENTS THAT CONVERGE QUICKLY        1.500    
     MAX. TIME INCREMENT INCREASE FACTOR ALLOWED                       1.500    
     MAX. TIME INCREMENT INCREASE FACTOR ALLOWED (DYNAMICS)            1.250    
     MAX. TIME INCREMENT INCREASE FACTOR ALLOWED (DIFFUSION)           2.000    
     MINIMUM TIME INCREMENT RATIO FOR EXTRAPOLATION TO OCCUR          0.1000    
     MAX. RATIO OF TIME INCREMENT TO STABILITY LIMIT                   1.000    
     FRACTION OF STABILITY LIMIT FOR NEW TIME INCREMENT               0.9500    
     TIME INCREMENT INCREASE FACTOR BEFORE A TIME POINT                1.000    
     GLOBAL STABILIZATION CONTROL IS NOT USED

          PRINT OF INCREMENT NUMBER, TIME, ETC., EVERY    1  INCREMENTS

     THE MAXIMUM NUMBER OF INCREMENTS IN THIS STEP IS                    1000

          LARGE DISPLACEMENT THEORY WILL BE USED

          UNSYMMETRIC MATRIX STORAGE AND SOLUTION WILL BE USED

     LINEAR EXTRAPOLATION WILL BE USED

     CHARACTERISTIC ELEMENT LENGTH     0.163    

     DETAILS REGARDING ACTUAL SOLUTION WAVEFRONT REQUESTED

     DETAILED OUTPUT OF DIAGNOSTICS TO DATABASE REQUESTED

     PRINT OF INCREMENT NUMBER, TIME, ETC., TO THE MESSAGE FILE EVERY     1  INCREMENTS

     COLLECTING MODEL CONSTRAINT INFORMATION FOR OVERCONSTRAINT CHECKS

     COLLECTING STEP CONSTRAINT INFORMATION FOR OVERCONSTRAINT CHECKS


  INCREMENT     1 STARTS. ATTEMPT NUMBER  1, TIME INCREMENT  1.000E-05

  NUMBER OF EQUATIONS =     80220     NUMBER OF FLOATING PT. OPERATIONS =  7.65E+09

     CHECK POINT   START OF SOLVER    

     CHECK POINT  END OF SOLVER       

       ELAPSED USER TIME (SEC)      =   1.0000    
       ELAPSED SYSTEM TIME (SEC)    =   0.0000    
       ELAPSED TOTAL CPU TIME (SEC) =   1.0000    
       ELAPSED WALLCLOCK TIME (SEC) =          1
 

 ***WARNING: SOLVER PROBLEM. NUMERICAL SINGULARITY WHEN PROCESSING NODE 
             COMPOSITEPLATE-1.4 D.O.F. 3 RATIO = 49.6497E+12 .
 

 ***WARNING: SOLVER PROBLEM. NUMERICAL SINGULARITY WHEN PROCESSING NODE 
             COMPOSITEPLATE-1.4 D.O.F. 4 RATIO = 1.51161E+12.
 

 ***WARNING: SOLVER PROBLEM. NUMERICAL SINGULARITY WHEN PROCESSING NODE 
             COMPOSITEPLATE-1.4 D.O.F. 5 RATIO = 5.32393E+12.

               CONVERGENCE CHECKS FOR EQUILIBRIUM ITERATION     1


 AVERAGE FORCE                      1.567E-04   TIME AVG. FORCE       1.567E-04
 LARGEST RESIDUAL FORCE            -3.244E-10   AT NODE      14041   DOF  1
   INSTANCE: COMPOSITEPLATE-1                                                                
 LARGEST INCREMENT OF DISP.         4.500E-07   AT NODE          9   DOF  1
   INSTANCE: COMPOSITEPLATE-1                                                                
 LARGEST CORRECTION TO DISP.        4.500E-07   AT NODE          9   DOF  1
   INSTANCE: COMPOSITEPLATE-1                                                                
          DISP.    CORRECTION TOO LARGE COMPARED TO DISP.    INCREMENT

 AVERAGE MOMENT                     1.989E-21   TIME AVG. MOMENT      1.000E-02
 LARGEST RESIDUAL MOMENT           -3.547E-20   AT NODE       8900   DOF  5
   INSTANCE: COMPOSITEPLATE-1                                                                
 LARGEST INCREMENT OF ROTATION     -4.095E-23   AT NODE        330   DOF  5
   INSTANCE: COMPOSITEPLATE-1                                                                
 LARGEST CORRECTION TO ROTATION    -4.095E-23   AT NODE        330   DOF  5
   INSTANCE: COMPOSITEPLATE-1                                                                
          THERE IS ZERO MOMENT    EVERYWHERE
 

 ***WARNING: THERE IS ZERO MOMENT EVERYWHERE IN THE MODEL BASED ON THE DEFAULT 
             CRITERION. PLEASE CHECK THE VALUE OF THE AVERAGE MOMENT DURING THE 
             CURRENT ITERATION TO VERIFY THAT THE MOMENT IS SMALL ENOUGH TO BE 
             TREATED AS ZERO. IF NOT, PLEASE USE THE SOLUTION CONTROLS TO RESET 
             THE CRITERION FOR ZERO MOMENT.

  NUMBER OF EQUATIONS =     80220     NUMBER OF FLOATING PT. OPERATIONS =  7.65E+09

     CHECK POINT   START OF SOLVER    

     CHECK POINT  END OF SOLVER       

       ELAPSED USER TIME (SEC)      =   1.0000    
       ELAPSED SYSTEM TIME (SEC)    =   0.0000    
       ELAPSED TOTAL CPU TIME (SEC) =   1.0000    
       ELAPSED WALLCLOCK TIME (SEC) =          1
 

 ***WARNING: SOLVER PROBLEM. NUMERICAL SINGULARITY WHEN PROCESSING NODE 
             COMPOSITEPLATE-1.4 D.O.F. 3 RATIO = 18.5313E+12 .

               CONVERGENCE CHECKS FOR EQUILIBRIUM ITERATION     2


 AVERAGE FORCE                      1.567E-04   TIME AVG. FORCE       1.567E-04
 LARGEST RESIDUAL FORCE            -3.482E-10   AT NODE      11963   DOF  1
   INSTANCE: COMPOSITEPLATE-1                                                                
 LARGEST INCREMENT OF DISP.         4.500E-07   AT NODE          9   DOF  1
   INSTANCE: COMPOSITEPLATE-1                                                                
 LARGEST CORRECTION TO DISP.       -4.209E-14   AT NODE       6189   DOF  1
   INSTANCE: COMPOSITEPLATE-1                                                                
          THE FORCE     EQUILIBRIUM EQUATIONS HAVE CONVERGED

 AVERAGE MOMENT                     3.306E-21   TIME AVG. MOMENT      1.000E-02
 LARGEST RESIDUAL MOMENT            7.094E-20   AT NODE      12999   DOF  4
   INSTANCE: COMPOSITEPLATE-1                                                                
 LARGEST INCREMENT OF ROTATION      3.107E-23   AT NODE         16   DOF  4
   INSTANCE: COMPOSITEPLATE-1                                                                
 LARGEST CORRECTION TO ROTATION     4.136E-23   AT NODE        463   DOF  5
   INSTANCE: COMPOSITEPLATE-1                                                                
          THERE IS ZERO MOMENT    EVERYWHERE
 

 ***WARNING: THERE IS ZERO MOMENT EVERYWHERE IN THE MODEL BASED ON THE DEFAULT 
             CRITERION. PLEASE CHECK THE VALUE OF THE AVERAGE MOMENT DURING THE 
             CURRENT ITERATION TO VERIFY THAT THE MOMENT IS SMALL ENOUGH TO BE 
             TREATED AS ZERO. IF NOT, PLEASE USE THE SOLUTION CONTROLS TO RESET 
             THE CRITERION FOR ZERO MOMENT.

 ITERATION SUMMARY FOR THE INCREMENT:   2 TOTAL ITERATIONS, OF WHICH
   0 ARE SEVERE DISCONTINUITY ITERATIONS AND  2 ARE EQUILIBRIUM ITERATIONS.

 TIME INCREMENT COMPLETED  1.000E-05,  FRACTION OF STEP COMPLETED  1.000E-05
 STEP TIME COMPLETED       1.000E-05,  TOTAL TIME COMPLETED        1.000E-05


  INCREMENT     2 STARTS. ATTEMPT NUMBER  1, TIME INCREMENT  1.000E-05

  NUMBER OF EQUATIONS =     80220     NUMBER OF FLOATING PT. OPERATIONS =  7.65E+09

     CHECK POINT   START OF SOLVER    

     CHECK POINT  END OF SOLVER       

       ELAPSED USER TIME (SEC)      =  0.90000    
       ELAPSED SYSTEM TIME (SEC)    =  0.10000    
       ELAPSED TOTAL CPU TIME (SEC) =   1.0000    
       ELAPSED WALLCLOCK TIME (SEC) =          1
 

 ***WARNING: SOLVER PROBLEM. NUMERICAL SINGULARITY WHEN PROCESSING NODE 
             COMPOSITEPLATE-1.4 D.O.F. 3 RATIO = 19.3681E+12 .

               CONVERGENCE CHECKS FOR EQUILIBRIUM ITERATION     1


 AVERAGE FORCE                      4.733E-04   TIME AVG. FORCE       3.150E-04
 LARGEST RESIDUAL FORCE             5.737E-10   AT NODE       8955   DOF  2
   INSTANCE: COMPOSITEPLATE-1                                                                
 LARGEST INCREMENT OF DISP.         4.500E-07   AT NODE          9   DOF  1
   INSTANCE: COMPOSITEPLATE-1                                                                
 LARGEST CORRECTION TO DISP.       -8.392E-14   AT NODE       4330   DOF  1
   INSTANCE: COMPOSITEPLATE-1                                                                
          THE FORCE     EQUILIBRIUM EQUATIONS HAVE CONVERGED

 AVERAGE MOMENT                     7.975E-21   TIME AVG. MOMENT      1.000E-02
 LARGEST RESIDUAL MOMENT            1.403E-19   AT NODE       5397   DOF  4
   INSTANCE: COMPOSITEPLATE-1                                                                
 LARGEST INCREMENT OF ROTATION      4.743E-23   AT NODE         13   DOF  5
   INSTANCE: COMPOSITEPLATE-1                                                                
 LARGEST CORRECTION TO ROTATION     6.535E-23   AT NODE         13   DOF  5
   INSTANCE: COMPOSITEPLATE-1                                                                
          THERE IS ZERO MOMENT    EVERYWHERE
 

 ***WARNING: THERE IS ZERO MOMENT EVERYWHERE IN THE MODEL BASED ON THE DEFAULT 
             CRITERION. PLEASE CHECK THE VALUE OF THE AVERAGE MOMENT DURING THE 
             CURRENT ITERATION TO VERIFY THAT THE MOMENT IS SMALL ENOUGH TO BE 
             TREATED AS ZERO. IF NOT, PLEASE USE THE SOLUTION CONTROLS TO RESET 
             THE CRITERION FOR ZERO MOMENT.
          TIME INCREMENT MAY NOW INCREASE TO    1.500E-05

 ITERATION SUMMARY FOR THE INCREMENT:   1 TOTAL ITERATIONS, OF WHICH
   0 ARE SEVERE DISCONTINUITY ITERATIONS AND  1 ARE EQUILIBRIUM ITERATIONS.

 TIME INCREMENT COMPLETED  1.000E-05,  FRACTION OF STEP COMPLETED  2.000E-05
 STEP TIME COMPLETED       2.000E-05,  TOTAL TIME COMPLETED        2.000E-05


  INCREMENT     3 STARTS. ATTEMPT NUMBER  1, TIME INCREMENT  1.500E-05

  NUMBER OF EQUATIONS =     80220     NUMBER OF FLOATING PT. OPERATIONS =  7.65E+09

     CHECK POINT   START OF SOLVER    

     CHECK POINT  END OF SOLVER       

       ELAPSED USER TIME (SEC)      =  0.90000    
       ELAPSED SYSTEM TIME (SEC)    =   0.0000    
       ELAPSED TOTAL CPU TIME (SEC) =  0.90000    
       ELAPSED WALLCLOCK TIME (SEC) =          0
 

 ***WARNING: SOLVER PROBLEM. NUMERICAL SINGULARITY WHEN PROCESSING NODE 
             COMPOSITEPLATE-1.4 D.O.F. 3 RATIO = 9.43167E+12.

               CONVERGENCE CHECKS FOR EQUILIBRIUM ITERATION     1


 AVERAGE FORCE                      8.283E-04   TIME AVG. FORCE       4.861E-04
 LARGEST RESIDUAL FORCE             6.346E-10   AT NODE       8955   DOF  2
   INSTANCE: COMPOSITEPLATE-1                                                                
 LARGEST INCREMENT OF DISP.         6.750E-07   AT NODE          9   DOF  1
   INSTANCE: COMPOSITEPLATE-1                                                                
 LARGEST CORRECTION TO DISP.       -1.571E-13   AT NODE       6224   DOF  1
   INSTANCE: COMPOSITEPLATE-1                                                                
          THE FORCE     EQUILIBRIUM EQUATIONS HAVE CONVERGED

 AVERAGE MOMENT                     1.538E-20   TIME AVG. MOMENT      1.000E-02
 LARGEST RESIDUAL MOMENT           -2.913E-19   AT NODE       7729   DOF  5
   INSTANCE: COMPOSITEPLATE-1                                                                
 LARGEST INCREMENT OF ROTATION      5.315E-23   AT NODE         15   DOF  5
   INSTANCE: COMPOSITEPLATE-1                                                                
 LARGEST CORRECTION TO ROTATION     7.256E-23   AT NODE         10   DOF  5
   INSTANCE: COMPOSITEPLATE-1                                                                
          THERE IS ZERO MOMENT    EVERYWHERE
 

 ***WARNING: THERE IS ZERO MOMENT EVERYWHERE IN THE MODEL BASED ON THE DEFAULT 
             CRITERION. PLEASE CHECK THE VALUE OF THE AVERAGE MOMENT DURING THE 
             CURRENT ITERATION TO VERIFY THAT THE MOMENT IS SMALL ENOUGH TO BE 
             TREATED AS ZERO. IF NOT, PLEASE USE THE SOLUTION CONTROLS TO RESET 
             THE CRITERION FOR ZERO MOMENT.
          TIME INCREMENT MAY NOW INCREASE TO    2.250E-05

 ITERATION SUMMARY FOR THE INCREMENT:   1 TOTAL ITERATIONS, OF WHICH
   0 ARE SEVERE DISCONTINUITY ITERATIONS AND  1 ARE EQUILIBRIUM ITERATIONS.

 TIME INCREMENT COMPLETED  1.500E-05,  FRACTION OF STEP COMPLETED  3.500E-05
 STEP TIME COMPLETED       3.500E-05,  TOTAL TIME COMPLETED        3.500E-05


  INCREMENT     4 STARTS. ATTEMPT NUMBER  1, TIME INCREMENT  2.250E-05

  NUMBER OF EQUATIONS =     80220     NUMBER OF FLOATING PT. OPERATIONS =  7.65E+09

     CHECK POINT   START OF SOLVER    

     CHECK POINT  END OF SOLVER       

       ELAPSED USER TIME (SEC)      =  0.90000    
       ELAPSED SYSTEM TIME (SEC)    =   0.0000    
       ELAPSED TOTAL CPU TIME (SEC) =  0.90000    
       ELAPSED WALLCLOCK TIME (SEC) =          1
 

 ***WARNING: SOLVER PROBLEM. NUMERICAL SINGULARITY WHEN PROCESSING NODE 
             COMPOSITEPLATE-1.4 D.O.F. 3 RATIO = 95.1272E+12 .

               CONVERGENCE CHECKS FOR EQUILIBRIUM ITERATION     1


 AVERAGE FORCE                      1.361E-03   TIME AVG. FORCE       7.048E-04
 LARGEST RESIDUAL FORCE             4.277E-10   AT NODE      14181   DOF  1
   INSTANCE: COMPOSITEPLATE-1                                                                
 LARGEST INCREMENT OF DISP.         1.013E-06   AT NODE          9   DOF  1
   INSTANCE: COMPOSITEPLATE-1                                                                
 LARGEST CORRECTION TO DISP.       -3.520E-13   AT NODE       1118   DOF  1
   INSTANCE: COMPOSITEPLATE-1                                                                
          THE FORCE     EQUILIBRIUM EQUATIONS HAVE CONVERGED

 AVERAGE MOMENT                     2.595E-20   TIME AVG. MOMENT      1.000E-02
 LARGEST RESIDUAL MOMENT            4.290E-19   AT NODE      13461   DOF  4
   INSTANCE: COMPOSITEPLATE-1                                                                
 LARGEST INCREMENT OF ROTATION     -8.534E-23   AT NODE         10   DOF  5
   INSTANCE: COMPOSITEPLATE-1                                                                
 LARGEST CORRECTION TO ROTATION    -1.524E-22   AT NODE         10   DOF  5
   INSTANCE: COMPOSITEPLATE-1                                                                
          THERE IS ZERO MOMENT    EVERYWHERE
 

 ***WARNING: THERE IS ZERO MOMENT EVERYWHERE IN THE MODEL BASED ON THE DEFAULT 
             CRITERION. PLEASE CHECK THE VALUE OF THE AVERAGE MOMENT DURING THE 
             CURRENT ITERATION TO VERIFY THAT THE MOMENT IS SMALL ENOUGH TO BE 
             TREATED AS ZERO. IF NOT, PLEASE USE THE SOLUTION CONTROLS TO RESET 
             THE CRITERION FOR ZERO MOMENT.
          TIME INCREMENT MAY NOW INCREASE TO    3.375E-05

 ITERATION SUMMARY FOR THE INCREMENT:   1 TOTAL ITERATIONS, OF WHICH
   0 ARE SEVERE DISCONTINUITY ITERATIONS AND  1 ARE EQUILIBRIUM ITERATIONS.

 TIME INCREMENT COMPLETED  2.250E-05,  FRACTION OF STEP COMPLETED  5.750E-05
 STEP TIME COMPLETED       5.750E-05,  TOTAL TIME COMPLETED        5.750E-05


  INCREMENT     5 STARTS. ATTEMPT NUMBER  1, TIME INCREMENT  3.375E-05

  NUMBER OF EQUATIONS =     80220     NUMBER OF FLOATING PT. OPERATIONS =  7.65E+09

     CHECK POINT   START OF SOLVER    

     CHECK POINT  END OF SOLVER       

       ELAPSED USER TIME (SEC)      =  0.90000    
       ELAPSED SYSTEM TIME (SEC)    =  0.10000    
       ELAPSED TOTAL CPU TIME (SEC) =   1.0000    
       ELAPSED WALLCLOCK TIME (SEC) =          0
 

 ***WARNING: SOLVER PROBLEM. NUMERICAL SINGULARITY WHEN PROCESSING NODE 
             COMPOSITEPLATE-1.4 D.O.F. 3 RATIO = 196.341E+12  .

               CONVERGENCE CHECKS FOR EQUILIBRIUM ITERATION     1


 AVERAGE FORCE                      2.159E-03   TIME AVG. FORCE       9.957E-04
 LARGEST RESIDUAL FORCE            -6.031E-10   AT NODE       8955   DOF  2
   INSTANCE: COMPOSITEPLATE-1                                                                
 LARGEST INCREMENT OF DISP.         1.519E-06   AT NODE          9   DOF  1
   INSTANCE: COMPOSITEPLATE-1                                                                
 LARGEST CORRECTION TO DISP.        7.942E-13   AT NODE       6766   DOF  1
   INSTANCE: COMPOSITEPLATE-1                                                                
          THE FORCE     EQUILIBRIUM EQUATIONS HAVE CONVERGED

 AVERAGE MOMENT                     4.187E-20   TIME AVG. MOMENT      1.000E-02
 LARGEST RESIDUAL MOMENT            7.167E-19   AT NODE      14070   DOF  4
   INSTANCE: COMPOSITEPLATE-1                                                                
 LARGEST INCREMENT OF ROTATION      1.687E-22   AT NODE         10   DOF  5
   INSTANCE: COMPOSITEPLATE-1                                                                
 LARGEST CORRECTION TO ROTATION     2.967E-22   AT NODE         10   DOF  5
   INSTANCE: COMPOSITEPLATE-1                                                                
          THERE IS ZERO MOMENT    EVERYWHERE
 

 ***WARNING: THERE IS ZERO MOMENT EVERYWHERE IN THE MODEL BASED ON THE DEFAULT 
             CRITERION. PLEASE CHECK THE VALUE OF THE AVERAGE MOMENT DURING THE 
             CURRENT ITERATION TO VERIFY THAT THE MOMENT IS SMALL ENOUGH TO BE 
             TREATED AS ZERO. IF NOT, PLEASE USE THE SOLUTION CONTROLS TO RESET 
             THE CRITERION FOR ZERO MOMENT.
          TIME INCREMENT MAY NOW INCREASE TO    5.063E-05

 ITERATION SUMMARY FOR THE INCREMENT:   1 TOTAL ITERATIONS, OF WHICH
   0 ARE SEVERE DISCONTINUITY ITERATIONS AND  1 ARE EQUILIBRIUM ITERATIONS.

 TIME INCREMENT COMPLETED  3.375E-05,  FRACTION OF STEP COMPLETED  9.125E-05
 STEP TIME COMPLETED       9.125E-05,  TOTAL TIME COMPLETED        9.125E-05


  INCREMENT     6 STARTS. ATTEMPT NUMBER  1, TIME INCREMENT  5.063E-05

  NUMBER OF EQUATIONS =     80220     NUMBER OF FLOATING PT. OPERATIONS =  7.65E+09

     CHECK POINT   START OF SOLVER    

     CHECK POINT  END OF SOLVER       

       ELAPSED USER TIME (SEC)      =  0.90000    
       ELAPSED SYSTEM TIME (SEC)    =   0.0000    
       ELAPSED TOTAL CPU TIME (SEC) =  0.90000    
       ELAPSED WALLCLOCK TIME (SEC) =          1
 

 ***WARNING: SOLVER PROBLEM. NUMERICAL SINGULARITY WHEN PROCESSING NODE 
             COMPOSITEPLATE-1.4 D.O.F. 3 RATIO = 123.043E+12  .

               CONVERGENCE CHECKS FOR EQUILIBRIUM ITERATION     1


 AVERAGE FORCE                      3.357E-03   TIME AVG. FORCE       1.389E-03
 LARGEST RESIDUAL FORCE            -4.206E-10   AT NODE       9542   DOF  1
   INSTANCE: COMPOSITEPLATE-1                                                                
 LARGEST INCREMENT OF DISP.         2.278E-06   AT NODE          9   DOF  1
   INSTANCE: COMPOSITEPLATE-1                                                                
 LARGEST CORRECTION TO DISP.        1.782E-12   AT NODE       8568   DOF  1
   INSTANCE: COMPOSITEPLATE-1                                                                
          THE FORCE     EQUILIBRIUM EQUATIONS HAVE CONVERGED

 AVERAGE MOMENT                     6.508E-20   TIME AVG. MOMENT      1.000E-02
 LARGEST RESIDUAL MOMENT            1.382E-18   AT NODE       7440   DOF  5
   INSTANCE: COMPOSITEPLATE-1                                                                
 LARGEST INCREMENT OF ROTATION      2.621E-22   AT NODE         13   DOF  5
   INSTANCE: COMPOSITEPLATE-1                                                                
 LARGEST CORRECTION TO ROTATION    -4.394E-22   AT NODE         10   DOF  5
   INSTANCE: COMPOSITEPLATE-1                                                                
          THERE IS ZERO MOMENT    EVERYWHERE
 

 ***WARNING: THERE IS ZERO MOMENT EVERYWHERE IN THE MODEL BASED ON THE DEFAULT 
             CRITERION. PLEASE CHECK THE VALUE OF THE AVERAGE MOMENT DURING THE 
             CURRENT ITERATION TO VERIFY THAT THE MOMENT IS SMALL ENOUGH TO BE 
             TREATED AS ZERO. IF NOT, PLEASE USE THE SOLUTION CONTROLS TO RESET 
             THE CRITERION FOR ZERO MOMENT.
          TIME INCREMENT MAY NOW INCREASE TO    7.594E-05

 ITERATION SUMMARY FOR THE INCREMENT:   1 TOTAL ITERATIONS, OF WHICH
   0 ARE SEVERE DISCONTINUITY ITERATIONS AND  1 ARE EQUILIBRIUM ITERATIONS.

 TIME INCREMENT COMPLETED  5.063E-05,  FRACTION OF STEP COMPLETED  1.419E-04
 STEP TIME COMPLETED       1.419E-04,  TOTAL TIME COMPLETED        1.419E-04


  INCREMENT     7 STARTS. ATTEMPT NUMBER  1, TIME INCREMENT  7.594E-05

  NUMBER OF EQUATIONS =     80220     NUMBER OF FLOATING PT. OPERATIONS =  7.65E+09

     CHECK POINT   START OF SOLVER    

     CHECK POINT  END OF SOLVER       

       ELAPSED USER TIME (SEC)      =  0.80000    
       ELAPSED SYSTEM TIME (SEC)    =   0.0000    
       ELAPSED TOTAL CPU TIME (SEC) =  0.80000    
       ELAPSED WALLCLOCK TIME (SEC) =          1
 

 ***WARNING: SOLVER PROBLEM. NUMERICAL SINGULARITY WHEN PROCESSING NODE 
             COMPOSITEPLATE-1.4 D.O.F. 3 RATIO = 72.4341E+12 .

               CONVERGENCE CHECKS FOR EQUILIBRIUM ITERATION     1


 AVERAGE FORCE                      5.154E-03   TIME AVG. FORCE       1.927E-03
 LARGEST RESIDUAL FORCE            -4.210E-10   AT NODE      12718   DOF  1
   INSTANCE: COMPOSITEPLATE-1                                                                
 LARGEST INCREMENT OF DISP.         3.417E-06   AT NODE          9   DOF  1
   INSTANCE: COMPOSITEPLATE-1                                                                
 LARGEST CORRECTION TO DISP.        4.014E-12   AT NODE       1819   DOF  1
   INSTANCE: COMPOSITEPLATE-1                                                                
          THE FORCE     EQUILIBRIUM EQUATIONS HAVE CONVERGED

 AVERAGE MOMENT                     9.957E-20   TIME AVG. MOMENT      1.000E-02
 LARGEST RESIDUAL MOMENT            1.506E-18   AT NODE       5546   DOF  4
   INSTANCE: COMPOSITEPLATE-1                                                                
 LARGEST INCREMENT OF ROTATION     -2.424E-22   AT NODE       2180   DOF  5
   INSTANCE: COMPOSITEPLATE-1                                                                
 LARGEST CORRECTION TO ROTATION    -4.152E-22   AT NODE       9692   DOF  5
   INSTANCE: COMPOSITEPLATE-1                                                                
          THERE IS ZERO MOMENT    EVERYWHERE
 

 ***WARNING: THERE IS ZERO MOMENT EVERYWHERE IN THE MODEL BASED ON THE DEFAULT 
             CRITERION. PLEASE CHECK THE VALUE OF THE AVERAGE MOMENT DURING THE 
             CURRENT ITERATION TO VERIFY THAT THE MOMENT IS SMALL ENOUGH TO BE 
             TREATED AS ZERO. IF NOT, PLEASE USE THE SOLUTION CONTROLS TO RESET 
             THE CRITERION FOR ZERO MOMENT.
          TIME INCREMENT MAY NOW INCREASE TO    1.139E-04

 ITERATION SUMMARY FOR THE INCREMENT:   1 TOTAL ITERATIONS, OF WHICH
   0 ARE SEVERE DISCONTINUITY ITERATIONS AND  1 ARE EQUILIBRIUM ITERATIONS.

 TIME INCREMENT COMPLETED  7.594E-05,  FRACTION OF STEP COMPLETED  2.178E-04
 STEP TIME COMPLETED       2.178E-04,  TOTAL TIME COMPLETED        2.178E-04


  INCREMENT     8 STARTS. ATTEMPT NUMBER  1, TIME INCREMENT  1.139E-04

  NUMBER OF EQUATIONS =     80220     NUMBER OF FLOATING PT. OPERATIONS =  7.65E+09

     CHECK POINT   START OF SOLVER    

     CHECK POINT  END OF SOLVER       

       ELAPSED USER TIME (SEC)      =  0.90000    
       ELAPSED SYSTEM TIME (SEC)    =   0.0000    
       ELAPSED TOTAL CPU TIME (SEC) =  0.90000    
       ELAPSED WALLCLOCK TIME (SEC) =          1
 

 ***WARNING: SOLVER PROBLEM. NUMERICAL SINGULARITY WHEN PROCESSING NODE 
             COMPOSITEPLATE-1.4 D.O.F. 3 RATIO = 16.9724E+12 .

               CONVERGENCE CHECKS FOR EQUILIBRIUM ITERATION     1


 AVERAGE FORCE                      7.850E-03   TIME AVG. FORCE       2.668E-03
 LARGEST RESIDUAL FORCE            -4.279E-10   AT NODE       8955   DOF  2
   INSTANCE: COMPOSITEPLATE-1                                                                
 LARGEST INCREMENT OF DISP.         5.126E-06   AT NODE          9   DOF  1
   INSTANCE: COMPOSITEPLATE-1                                                                
 LARGEST CORRECTION TO DISP.        9.028E-12   AT NODE       6766   DOF  1
   INSTANCE: COMPOSITEPLATE-1                                                                
          THE FORCE     EQUILIBRIUM EQUATIONS HAVE CONVERGED

 AVERAGE MOMENT                     1.525E-19   TIME AVG. MOMENT      1.000E-02
 LARGEST RESIDUAL MOMENT           -2.298E-18   AT NODE      10603   DOF  4
   INSTANCE: COMPOSITEPLATE-1                                                                
 LARGEST INCREMENT OF ROTATION      3.689E-22   AT NODE        379   DOF  5
   INSTANCE: COMPOSITEPLATE-1                                                                
 LARGEST CORRECTION TO ROTATION     5.262E-22   AT NODE       9691   DOF  5
   INSTANCE: COMPOSITEPLATE-1                                                                
          THERE IS ZERO MOMENT    EVERYWHERE
 

 ***WARNING: THERE IS ZERO MOMENT EVERYWHERE IN THE MODEL BASED ON THE DEFAULT 
             CRITERION. PLEASE CHECK THE VALUE OF THE AVERAGE MOMENT DURING THE 
             CURRENT ITERATION TO VERIFY THAT THE MOMENT IS SMALL ENOUGH TO BE 
             TREATED AS ZERO. IF NOT, PLEASE USE THE SOLUTION CONTROLS TO RESET 
             THE CRITERION FOR ZERO MOMENT.
          TIME INCREMENT MAY NOW INCREASE TO    1.709E-04

 ITERATION SUMMARY FOR THE INCREMENT:   1 TOTAL ITERATIONS, OF WHICH
   0 ARE SEVERE DISCONTINUITY ITERATIONS AND  1 ARE EQUILIBRIUM ITERATIONS.

 TIME INCREMENT COMPLETED  1.139E-04,  FRACTION OF STEP COMPLETED  3.317E-04
 STEP TIME COMPLETED       3.317E-04,  TOTAL TIME COMPLETED        3.317E-04


  INCREMENT     9 STARTS. ATTEMPT NUMBER  1, TIME INCREMENT  1.709E-04

  NUMBER OF EQUATIONS =     80220     NUMBER OF FLOATING PT. OPERATIONS =  7.65E+09

     CHECK POINT   START OF SOLVER    

     CHECK POINT  END OF SOLVER       

       ELAPSED USER TIME (SEC)      =  0.80000    
       ELAPSED SYSTEM TIME (SEC)    =  0.10000    
       ELAPSED TOTAL CPU TIME (SEC) =  0.90000    
       ELAPSED WALLCLOCK TIME (SEC) =          1
 

 ***WARNING: SOLVER PROBLEM. NUMERICAL SINGULARITY WHEN PROCESSING NODE 
             COMPOSITEPLATE-1.4 D.O.F. 3 RATIO = 9.49363E+12.

               CONVERGENCE CHECKS FOR EQUILIBRIUM ITERATION     1


 AVERAGE FORCE                      1.189E-02   TIME AVG. FORCE       3.693E-03
 LARGEST RESIDUAL FORCE            -4.141E-10   AT NODE       9408   DOF  1
   INSTANCE: COMPOSITEPLATE-1                                                                
 LARGEST INCREMENT OF DISP.         7.689E-06   AT NODE          9   DOF  1
   INSTANCE: COMPOSITEPLATE-1                                                                
 LARGEST CORRECTION TO DISP.        2.032E-11   AT NODE       8568   DOF  1
   INSTANCE: COMPOSITEPLATE-1                                                                
          THE FORCE     EQUILIBRIUM EQUATIONS HAVE CONVERGED

 AVERAGE MOMENT                     2.338E-19   TIME AVG. MOMENT      1.000E-02
 LARGEST RESIDUAL MOMENT           -3.761E-18   AT NODE      15539   DOF  5
   INSTANCE: COMPOSITEPLATE-1                                                                
 LARGEST INCREMENT OF ROTATION     -7.663E-22   AT NODE        462   DOF  5
   INSTANCE: COMPOSITEPLATE-1                                                                
 LARGEST CORRECTION TO ROTATION    -9.460E-22   AT NODE        462   DOF  5
   INSTANCE: COMPOSITEPLATE-1                                                                
          THERE IS ZERO MOMENT    EVERYWHERE
 

 ***WARNING: THERE IS ZERO MOMENT EVERYWHERE IN THE MODEL BASED ON THE DEFAULT 
             CRITERION. PLEASE CHECK THE VALUE OF THE AVERAGE MOMENT DURING THE 
             CURRENT ITERATION TO VERIFY THAT THE MOMENT IS SMALL ENOUGH TO BE 
             TREATED AS ZERO. IF NOT, PLEASE USE THE SOLUTION CONTROLS TO RESET 
             THE CRITERION FOR ZERO MOMENT.
          TIME INCREMENT MAY NOW INCREASE TO    2.563E-04

 ITERATION SUMMARY FOR THE INCREMENT:   1 TOTAL ITERATIONS, OF WHICH
   0 ARE SEVERE DISCONTINUITY ITERATIONS AND  1 ARE EQUILIBRIUM ITERATIONS.

 TIME INCREMENT COMPLETED  1.709E-04,  FRACTION OF STEP COMPLETED  5.026E-04
 STEP TIME COMPLETED       5.026E-04,  TOTAL TIME COMPLETED        5.026E-04


  INCREMENT    10 STARTS. ATTEMPT NUMBER  1, TIME INCREMENT  2.563E-04

  NUMBER OF EQUATIONS =     80220     NUMBER OF FLOATING PT. OPERATIONS =  7.65E+09

     CHECK POINT   START OF SOLVER    

     CHECK POINT  END OF SOLVER       

       ELAPSED USER TIME (SEC)      =  0.80000    
       ELAPSED SYSTEM TIME (SEC)    =  0.10000    
       ELAPSED TOTAL CPU TIME (SEC) =  0.90000    
       ELAPSED WALLCLOCK TIME (SEC) =          1
 

 ***WARNING: SOLVER PROBLEM. NUMERICAL SINGULARITY WHEN PROCESSING NODE 
             COMPOSITEPLATE-1.4 D.O.F. 3 RATIO = 52.8557E+12 .

               CONVERGENCE CHECKS FOR EQUILIBRIUM ITERATION     1


 AVERAGE FORCE                      1.796E-02   TIME AVG. FORCE       5.119E-03
 LARGEST RESIDUAL FORCE            -3.483E-10   AT NODE       2154   DOF  1
   INSTANCE: COMPOSITEPLATE-1                                                                
 LARGEST INCREMENT OF DISP.         1.153E-05   AT NODE          9   DOF  1
   INSTANCE: COMPOSITEPLATE-1                                                                
 LARGEST CORRECTION TO DISP.        4.570E-11   AT NODE       6766   DOF  1
   INSTANCE: COMPOSITEPLATE-1                                                                
          THE FORCE     EQUILIBRIUM EQUATIONS HAVE CONVERGED

 AVERAGE MOMENT                     3.466E-19   TIME AVG. MOMENT      1.000E-02
 LARGEST RESIDUAL MOMENT           -5.598E-18   AT NODE      11956   DOF  5
   INSTANCE: COMPOSITEPLATE-1                                                                
 LARGEST INCREMENT OF ROTATION      1.173E-21   AT NODE         15   DOF  4
   INSTANCE: COMPOSITEPLATE-1                                                                
 LARGEST CORRECTION TO ROTATION     1.789E-21   AT NODE        462   DOF  5
   INSTANCE: COMPOSITEPLATE-1                                                                
          THERE IS ZERO MOMENT    EVERYWHERE
 

 ***WARNING: THERE IS ZERO MOMENT EVERYWHERE IN THE MODEL BASED ON THE DEFAULT 
             CRITERION. PLEASE CHECK THE VALUE OF THE AVERAGE MOMENT DURING THE 
             CURRENT ITERATION TO VERIFY THAT THE MOMENT IS SMALL ENOUGH TO BE 
             TREATED AS ZERO. IF NOT, PLEASE USE THE SOLUTION CONTROLS TO RESET 
             THE CRITERION FOR ZERO MOMENT.
          TIME INCREMENT MAY NOW INCREASE TO    3.844E-04

 ITERATION SUMMARY FOR THE INCREMENT:   1 TOTAL ITERATIONS, OF WHICH
   0 ARE SEVERE DISCONTINUITY ITERATIONS AND  1 ARE EQUILIBRIUM ITERATIONS.

 TIME INCREMENT COMPLETED  2.563E-04,  FRACTION OF STEP COMPLETED  7.589E-04
 STEP TIME COMPLETED       7.589E-04,  TOTAL TIME COMPLETED        7.589E-04


  INCREMENT    11 STARTS. ATTEMPT NUMBER  1, TIME INCREMENT  3.844E-04

  NUMBER OF EQUATIONS =     80220     NUMBER OF FLOATING PT. OPERATIONS =  7.65E+09

     CHECK POINT   START OF SOLVER    

     CHECK POINT  END OF SOLVER       

       ELAPSED USER TIME (SEC)      =  0.90000    
       ELAPSED SYSTEM TIME (SEC)    =   0.0000    
       ELAPSED TOTAL CPU TIME (SEC) =  0.90000    
       ELAPSED WALLCLOCK TIME (SEC) =          1
 

 ***WARNING: SOLVER PROBLEM. NUMERICAL SINGULARITY WHEN PROCESSING NODE 
             COMPOSITEPLATE-1.4 D.O.F. 3 RATIO = 21.6178E+12 .

               CONVERGENCE CHECKS FOR EQUILIBRIUM ITERATION     1


 AVERAGE FORCE                      2.705E-02   TIME AVG. FORCE       7.113E-03
 LARGEST RESIDUAL FORCE             4.299E-10   AT NODE      12227   DOF  1
   INSTANCE: COMPOSITEPLATE-1                                                                
 LARGEST INCREMENT OF DISP.         1.730E-05   AT NODE          9   DOF  1
   INSTANCE: COMPOSITEPLATE-1                                                                
 LARGEST CORRECTION TO DISP.        1.028E-10   AT NODE       8568   DOF  1
   INSTANCE: COMPOSITEPLATE-1                                                                
          THE FORCE     EQUILIBRIUM EQUATIONS HAVE CONVERGED

 AVERAGE MOMENT                     5.272E-19   TIME AVG. MOMENT      1.000E-02
 LARGEST RESIDUAL MOMENT            8.538E-18   AT NODE      14090   DOF  4
   INSTANCE: COMPOSITEPLATE-1                                                                
 LARGEST INCREMENT OF ROTATION     -1.851E-21   AT NODE         15   DOF  5
   INSTANCE: COMPOSITEPLATE-1                                                                
 LARGEST CORRECTION TO ROTATION    -2.291E-21   AT NODE         15   DOF  4
   INSTANCE: COMPOSITEPLATE-1                                                                
          THERE IS ZERO MOMENT    EVERYWHERE
 

 ***WARNING: THERE IS ZERO MOMENT EVERYWHERE IN THE MODEL BASED ON THE DEFAULT 
             CRITERION. PLEASE CHECK THE VALUE OF THE AVERAGE MOMENT DURING THE 
             CURRENT ITERATION TO VERIFY THAT THE MOMENT IS SMALL ENOUGH TO BE 
             TREATED AS ZERO. IF NOT, PLEASE USE THE SOLUTION CONTROLS TO RESET 
             THE CRITERION FOR ZERO MOMENT.
          TIME INCREMENT MAY NOW INCREASE TO    5.767E-04

 ITERATION SUMMARY FOR THE INCREMENT:   1 TOTAL ITERATIONS, OF WHICH
   0 ARE SEVERE DISCONTINUITY ITERATIONS AND  1 ARE EQUILIBRIUM ITERATIONS.

 TIME INCREMENT COMPLETED  3.844E-04,  FRACTION OF STEP COMPLETED  1.143E-03
 STEP TIME COMPLETED       1.143E-03,  TOTAL TIME COMPLETED        1.143E-03


  INCREMENT    12 STARTS. ATTEMPT NUMBER  1, TIME INCREMENT  5.767E-04

  NUMBER OF EQUATIONS =     80220     NUMBER OF FLOATING PT. OPERATIONS =  7.65E+09

     CHECK POINT   START OF SOLVER    

     CHECK POINT  END OF SOLVER       

       ELAPSED USER TIME (SEC)      =   1.0000    
       ELAPSED SYSTEM TIME (SEC)    =   0.0000    
       ELAPSED TOTAL CPU TIME (SEC) =   1.0000    
       ELAPSED WALLCLOCK TIME (SEC) =          1
 

 ***WARNING: SOLVER PROBLEM. NUMERICAL SINGULARITY WHEN PROCESSING NODE 
             COMPOSITEPLATE-1.4 D.O.F. 3 RATIO = 18.2252E+12 .

               CONVERGENCE CHECKS FOR EQUILIBRIUM ITERATION     1


 AVERAGE FORCE                      4.070E-02   TIME AVG. FORCE       9.911E-03
 LARGEST RESIDUAL FORCE            -4.256E-10   AT NODE       8955   DOF  2
   INSTANCE: COMPOSITEPLATE-1                                                                
 LARGEST INCREMENT OF DISP.         2.595E-05   AT NODE          9   DOF  1
   INSTANCE: COMPOSITEPLATE-1                                                                
 LARGEST CORRECTION TO DISP.       -2.314E-10   AT NODE       4363   DOF  1
   INSTANCE: COMPOSITEPLATE-1                                                                
          THE FORCE     EQUILIBRIUM EQUATIONS HAVE CONVERGED

 AVERAGE MOMENT                     7.927E-19   TIME AVG. MOMENT      1.000E-02
 LARGEST RESIDUAL MOMENT            1.277E-17   AT NODE       5392   DOF  5
   INSTANCE: COMPOSITEPLATE-1                                                                
 LARGEST INCREMENT OF ROTATION      2.223E-21   AT NODE        354   DOF  5
   INSTANCE: COMPOSITEPLATE-1                                                                
 LARGEST CORRECTION TO ROTATION     4.292E-21   AT NODE         15   DOF  5
   INSTANCE: COMPOSITEPLATE-1                                                                
          THERE IS ZERO MOMENT    EVERYWHERE
 

 ***WARNING: THERE IS ZERO MOMENT EVERYWHERE IN THE MODEL BASED ON THE DEFAULT 
             CRITERION. PLEASE CHECK THE VALUE OF THE AVERAGE MOMENT DURING THE 
             CURRENT ITERATION TO VERIFY THAT THE MOMENT IS SMALL ENOUGH TO BE 
             TREATED AS ZERO. IF NOT, PLEASE USE THE SOLUTION CONTROLS TO RESET 
             THE CRITERION FOR ZERO MOMENT.
          TIME INCREMENT MAY NOW INCREASE TO    8.650E-04

 ITERATION SUMMARY FOR THE INCREMENT:   1 TOTAL ITERATIONS, OF WHICH
   0 ARE SEVERE DISCONTINUITY ITERATIONS AND  1 ARE EQUILIBRIUM ITERATIONS.

 TIME INCREMENT COMPLETED  5.767E-04,  FRACTION OF STEP COMPLETED  1.720E-03
 STEP TIME COMPLETED       1.720E-03,  TOTAL TIME COMPLETED        1.720E-03


  INCREMENT    13 STARTS. ATTEMPT NUMBER  1, TIME INCREMENT  8.650E-04

  NUMBER OF EQUATIONS =     80220     NUMBER OF FLOATING PT. OPERATIONS =  7.65E+09

     CHECK POINT   START OF SOLVER    

     CHECK POINT  END OF SOLVER       

       ELAPSED USER TIME (SEC)      =  0.90000    
       ELAPSED SYSTEM TIME (SEC)    =   0.0000    
       ELAPSED TOTAL CPU TIME (SEC) =  0.90000    
       ELAPSED WALLCLOCK TIME (SEC) =          0
 

 ***WARNING: SOLVER PROBLEM. NUMERICAL SINGULARITY WHEN PROCESSING NODE 
             COMPOSITEPLATE-1.4 D.O.F. 3 RATIO = 10.2453E+12 .

               CONVERGENCE CHECKS FOR EQUILIBRIUM ITERATION     1


 AVERAGE FORCE                      6.116E-02   TIME AVG. FORCE       1.385E-02
 LARGEST RESIDUAL FORCE            -4.905E-10   AT NODE      11963   DOF  1
   INSTANCE: COMPOSITEPLATE-1                                                                
 LARGEST INCREMENT OF DISP.         3.892E-05   AT NODE          9   DOF  1
   INSTANCE: COMPOSITEPLATE-1                                                                
 LARGEST CORRECTION TO DISP.        5.206E-10   AT NODE       6766   DOF  1
   INSTANCE: COMPOSITEPLATE-1                                                                
          THE FORCE     EQUILIBRIUM EQUATIONS HAVE CONVERGED

 AVERAGE MOMENT                     1.192E-18   TIME AVG. MOMENT      1.000E-02
 LARGEST RESIDUAL MOMENT            1.881E-17   AT NODE       5365   DOF  4
   INSTANCE: COMPOSITEPLATE-1                                                                
 LARGEST INCREMENT OF ROTATION      3.530E-21   AT NODE         13   DOF  5
   INSTANCE: COMPOSITEPLATE-1                                                                
 LARGEST CORRECTION TO ROTATION    -4.705E-21   AT NODE      14212   DOF  5
   INSTANCE: COMPOSITEPLATE-1                                                                
          THERE IS ZERO MOMENT    EVERYWHERE
 

 ***WARNING: THERE IS ZERO MOMENT EVERYWHERE IN THE MODEL BASED ON THE DEFAULT 
             CRITERION. PLEASE CHECK THE VALUE OF THE AVERAGE MOMENT DURING THE 
             CURRENT ITERATION TO VERIFY THAT THE MOMENT IS SMALL ENOUGH TO BE 
             TREATED AS ZERO. IF NOT, PLEASE USE THE SOLUTION CONTROLS TO RESET 
             THE CRITERION FOR ZERO MOMENT.
          TIME INCREMENT MAY NOW INCREASE TO    1.297E-03

 ITERATION SUMMARY FOR THE INCREMENT:   1 TOTAL ITERATIONS, OF WHICH
   0 ARE SEVERE DISCONTINUITY ITERATIONS AND  1 ARE EQUILIBRIUM ITERATIONS.

 TIME INCREMENT COMPLETED  8.650E-04,  FRACTION OF STEP COMPLETED  2.585E-03
 STEP TIME COMPLETED       2.585E-03,  TOTAL TIME COMPLETED        2.585E-03


  INCREMENT    14 STARTS. ATTEMPT NUMBER  1, TIME INCREMENT  1.297E-03

  NUMBER OF EQUATIONS =     80220     NUMBER OF FLOATING PT. OPERATIONS =  7.65E+09

     CHECK POINT   START OF SOLVER    

     CHECK POINT  END OF SOLVER       

       ELAPSED USER TIME (SEC)      =  0.90000    
       ELAPSED SYSTEM TIME (SEC)    =   0.0000    
       ELAPSED TOTAL CPU TIME (SEC) =  0.90000    
       ELAPSED WALLCLOCK TIME (SEC) =          1
 

 ***WARNING: SOLVER PROBLEM. NUMERICAL SINGULARITY WHEN PROCESSING NODE 
             COMPOSITEPLATE-1.4 D.O.F. 3 RATIO = 26.9836E+12 .

               CONVERGENCE CHECKS FOR EQUILIBRIUM ITERATION     1


 AVERAGE FORCE                      9.186E-02   TIME AVG. FORCE       1.943E-02
 LARGEST RESIDUAL FORCE            -4.906E-10   AT NODE       2177   DOF  1
   INSTANCE: COMPOSITEPLATE-1                                                                
 LARGEST INCREMENT OF DISP.         5.839E-05   AT NODE          9   DOF  1
   INSTANCE: COMPOSITEPLATE-1                                                                
 LARGEST CORRECTION TO DISP.       -1.171E-09   AT NODE       6187   DOF  1
   INSTANCE: COMPOSITEPLATE-1                                                                
          THE FORCE     EQUILIBRIUM EQUATIONS HAVE CONVERGED

 AVERAGE MOMENT                     1.811E-18   TIME AVG. MOMENT      1.000E-02
 LARGEST RESIDUAL MOMENT           -3.719E-17   AT NODE       9666   DOF  4
   INSTANCE: COMPOSITEPLATE-1                                                                
 LARGEST INCREMENT OF ROTATION      5.871E-21   AT NODE         10   DOF  5
   INSTANCE: COMPOSITEPLATE-1                                                                
 LARGEST CORRECTION TO ROTATION    -8.407E-21   AT NODE         13   DOF  5
   INSTANCE: COMPOSITEPLATE-1                                                                
          THERE IS ZERO MOMENT    EVERYWHERE
 

 ***WARNING: THERE IS ZERO MOMENT EVERYWHERE IN THE MODEL BASED ON THE DEFAULT 
             CRITERION. PLEASE CHECK THE VALUE OF THE AVERAGE MOMENT DURING THE 
             CURRENT ITERATION TO VERIFY THAT THE MOMENT IS SMALL ENOUGH TO BE 
             TREATED AS ZERO. IF NOT, PLEASE USE THE SOLUTION CONTROLS TO RESET 
             THE CRITERION FOR ZERO MOMENT.
          TIME INCREMENT MAY NOW INCREASE TO    1.946E-03

 ITERATION SUMMARY FOR THE INCREMENT:   1 TOTAL ITERATIONS, OF WHICH
   0 ARE SEVERE DISCONTINUITY ITERATIONS AND  1 ARE EQUILIBRIUM ITERATIONS.

 TIME INCREMENT COMPLETED  1.297E-03,  FRACTION OF STEP COMPLETED  3.882E-03
 STEP TIME COMPLETED       3.882E-03,  TOTAL TIME COMPLETED        3.882E-03


  INCREMENT    15 STARTS. ATTEMPT NUMBER  1, TIME INCREMENT  1.946E-03

  NUMBER OF EQUATIONS =     80220     NUMBER OF FLOATING PT. OPERATIONS =  7.65E+09

     CHECK POINT   START OF SOLVER    

     CHECK POINT  END OF SOLVER       

       ELAPSED USER TIME (SEC)      =  0.90000    
       ELAPSED SYSTEM TIME (SEC)    =   0.0000    
       ELAPSED TOTAL CPU TIME (SEC) =  0.90000    
       ELAPSED WALLCLOCK TIME (SEC) =          1
 

 ***WARNING: SOLVER PROBLEM. NUMERICAL SINGULARITY WHEN PROCESSING NODE 
             COMPOSITEPLATE-1.4 D.O.F. 3 RATIO = 117.557E+12  .

               CONVERGENCE CHECKS FOR EQUILIBRIUM ITERATION     1


 AVERAGE FORCE                      0.138       TIME AVG. FORCE       2.732E-02
 LARGEST RESIDUAL FORCE             5.438E-10   AT NODE       8955   DOF  2
   INSTANCE: COMPOSITEPLATE-1                                                                
 LARGEST INCREMENT OF DISP.         8.758E-05   AT NODE          9   DOF  1
   INSTANCE: COMPOSITEPLATE-1                                                                
 LARGEST CORRECTION TO DISP.        2.635E-09   AT NODE       8568   DOF  1
   INSTANCE: COMPOSITEPLATE-1                                                                
          THE FORCE     EQUILIBRIUM EQUATIONS HAVE CONVERGED

 AVERAGE MOMENT                     2.703E-18   TIME AVG. MOMENT      1.000E-02
 LARGEST RESIDUAL MOMENT            4.441E-17   AT NODE       9692   DOF  4
   INSTANCE: COMPOSITEPLATE-1                                                                
 LARGEST INCREMENT OF ROTATION      1.004E-20   AT NODE         13   DOF  5
   INSTANCE: COMPOSITEPLATE-1                                                                
 LARGEST CORRECTION TO ROTATION     1.471E-20   AT NODE         13   DOF  5
   INSTANCE: COMPOSITEPLATE-1                                                                
          THERE IS ZERO MOMENT    EVERYWHERE
 

 ***WARNING: THERE IS ZERO MOMENT EVERYWHERE IN THE MODEL BASED ON THE DEFAULT 
             CRITERION. PLEASE CHECK THE VALUE OF THE AVERAGE MOMENT DURING THE 
             CURRENT ITERATION TO VERIFY THAT THE MOMENT IS SMALL ENOUGH TO BE 
             TREATED AS ZERO. IF NOT, PLEASE USE THE SOLUTION CONTROLS TO RESET 
             THE CRITERION FOR ZERO MOMENT.
          TIME INCREMENT MAY NOW INCREASE TO    2.919E-03

 ITERATION SUMMARY FOR THE INCREMENT:   1 TOTAL ITERATIONS, OF WHICH
   0 ARE SEVERE DISCONTINUITY ITERATIONS AND  1 ARE EQUILIBRIUM ITERATIONS.

 TIME INCREMENT COMPLETED  1.946E-03,  FRACTION OF STEP COMPLETED  5.829E-03
 STEP TIME COMPLETED       5.829E-03,  TOTAL TIME COMPLETED        5.829E-03


  INCREMENT    16 STARTS. ATTEMPT NUMBER  1, TIME INCREMENT  2.919E-03

  NUMBER OF EQUATIONS =     80220     NUMBER OF FLOATING PT. OPERATIONS =  7.65E+09

     CHECK POINT   START OF SOLVER    

     CHECK POINT  END OF SOLVER       

       ELAPSED USER TIME (SEC)      =  0.90000    
       ELAPSED SYSTEM TIME (SEC)    =   0.0000    
       ELAPSED TOTAL CPU TIME (SEC) =  0.90000    
       ELAPSED WALLCLOCK TIME (SEC) =          0
 

 ***WARNING: SOLVER PROBLEM. NUMERICAL SINGULARITY WHEN PROCESSING NODE 
             COMPOSITEPLATE-1.4 D.O.F. 3 RATIO = 45.7124E+12 .

               CONVERGENCE CHECKS FOR EQUILIBRIUM ITERATION     1


 AVERAGE FORCE                      0.207       TIME AVG. FORCE       3.855E-02
 LARGEST RESIDUAL FORCE            -5.038E-10   AT NODE       2418   DOF  2
   INSTANCE: COMPOSITEPLATE-1                                                                
 LARGEST INCREMENT OF DISP.         1.314E-04   AT NODE          9   DOF  1
   INSTANCE: COMPOSITEPLATE-1                                                                
 LARGEST CORRECTION TO DISP.       -5.928E-09   AT NODE       6187   DOF  1
   INSTANCE: COMPOSITEPLATE-1                                                                
          THE FORCE     EQUILIBRIUM EQUATIONS HAVE CONVERGED

 AVERAGE MOMENT                     4.029E-18   TIME AVG. MOMENT      1.000E-02
 LARGEST RESIDUAL MOMENT           -6.470E-17   AT NODE       7479   DOF  5
   INSTANCE: COMPOSITEPLATE-1                                                                
 LARGEST INCREMENT OF ROTATION     -1.012E-20   AT NODE      12349   DOF  5
   INSTANCE: COMPOSITEPLATE-1                                                                
 LARGEST CORRECTION TO ROTATION    -2.103E-20   AT NODE         13   DOF  5
   INSTANCE: COMPOSITEPLATE-1                                                                
          THERE IS ZERO MOMENT    EVERYWHERE
 

 ***WARNING: THERE IS ZERO MOMENT EVERYWHERE IN THE MODEL BASED ON THE DEFAULT 
             CRITERION. PLEASE CHECK THE VALUE OF THE AVERAGE MOMENT DURING THE 
             CURRENT ITERATION TO VERIFY THAT THE MOMENT IS SMALL ENOUGH TO BE 
             TREATED AS ZERO. IF NOT, PLEASE USE THE SOLUTION CONTROLS TO RESET 
             THE CRITERION FOR ZERO MOMENT.
          TIME INCREMENT MAY NOW INCREASE TO    4.379E-03

 ITERATION SUMMARY FOR THE INCREMENT:   1 TOTAL ITERATIONS, OF WHICH
   0 ARE SEVERE DISCONTINUITY ITERATIONS AND  1 ARE EQUILIBRIUM ITERATIONS.

 TIME INCREMENT COMPLETED  2.919E-03,  FRACTION OF STEP COMPLETED  8.748E-03
 STEP TIME COMPLETED       8.748E-03,  TOTAL TIME COMPLETED        8.748E-03


  INCREMENT    17 STARTS. ATTEMPT NUMBER  1, TIME INCREMENT  4.379E-03

  NUMBER OF EQUATIONS =     80220     NUMBER OF FLOATING PT. OPERATIONS =  7.65E+09

     CHECK POINT   START OF SOLVER    

     CHECK POINT  END OF SOLVER       

       ELAPSED USER TIME (SEC)      =  0.90000    
       ELAPSED SYSTEM TIME (SEC)    =   0.0000    
       ELAPSED TOTAL CPU TIME (SEC) =  0.90000    
       ELAPSED WALLCLOCK TIME (SEC) =          1
 

 ***WARNING: SOLVER PROBLEM. NUMERICAL SINGULARITY WHEN PROCESSING NODE 
             COMPOSITEPLATE-1.4 D.O.F. 3 RATIO = 67.2903E+12 .

               CONVERGENCE CHECKS FOR EQUILIBRIUM ITERATION     1


 AVERAGE FORCE                      0.311       TIME AVG. FORCE       5.456E-02
 LARGEST RESIDUAL FORCE             7.498E-10   AT NODE       4990   DOF  1
   INSTANCE: COMPOSITEPLATE-1                                                                
 LARGEST INCREMENT OF DISP.         1.971E-04   AT NODE          9   DOF  1
   INSTANCE: COMPOSITEPLATE-1                                                                
 LARGEST CORRECTION TO DISP.       -1.333E-08   AT NODE       6187   DOF  1
   INSTANCE: COMPOSITEPLATE-1                                                                
          THE FORCE     EQUILIBRIUM EQUATIONS HAVE CONVERGED

 AVERAGE MOMENT                     6.112E-18   TIME AVG. MOMENT      1.000E-02
 LARGEST RESIDUAL MOMENT           -1.050E-16   AT NODE      15709   DOF  4
   INSTANCE: COMPOSITEPLATE-1                                                                
 LARGEST INCREMENT OF ROTATION      1.572E-20   AT NODE        395   DOF  5
   INSTANCE: COMPOSITEPLATE-1                                                                
 LARGEST CORRECTION TO ROTATION    -2.884E-20   AT NODE         16   DOF  5
   INSTANCE: COMPOSITEPLATE-1                                                                
          THERE IS ZERO MOMENT    EVERYWHERE
 

 ***WARNING: THERE IS ZERO MOMENT EVERYWHERE IN THE MODEL BASED ON THE DEFAULT 
             CRITERION. PLEASE CHECK THE VALUE OF THE AVERAGE MOMENT DURING THE 
             CURRENT ITERATION TO VERIFY THAT THE MOMENT IS SMALL ENOUGH TO BE 
             TREATED AS ZERO. IF NOT, PLEASE USE THE SOLUTION CONTROLS TO RESET 
             THE CRITERION FOR ZERO MOMENT.
          TIME INCREMENT MAY NOW INCREASE TO    6.568E-03

 ITERATION SUMMARY FOR THE INCREMENT:   1 TOTAL ITERATIONS, OF WHICH
   0 ARE SEVERE DISCONTINUITY ITERATIONS AND  1 ARE EQUILIBRIUM ITERATIONS.

 TIME INCREMENT COMPLETED  4.379E-03,  FRACTION OF STEP COMPLETED  1.313E-02
 STEP TIME COMPLETED       1.313E-02,  TOTAL TIME COMPLETED        1.313E-02


  INCREMENT    18 STARTS. ATTEMPT NUMBER  1, TIME INCREMENT  6.568E-03

  NUMBER OF EQUATIONS =     80220     NUMBER OF FLOATING PT. OPERATIONS =  7.65E+09

     CHECK POINT   START OF SOLVER    

     CHECK POINT  END OF SOLVER       

       ELAPSED USER TIME (SEC)      =  0.90000    
       ELAPSED SYSTEM TIME (SEC)    =   0.0000    
       ELAPSED TOTAL CPU TIME (SEC) =  0.90000    
       ELAPSED WALLCLOCK TIME (SEC) =          1
 

 ***WARNING: SOLVER PROBLEM. NUMERICAL SINGULARITY WHEN PROCESSING NODE 
             COMPOSITEPLATE-1.4 D.O.F. 3 RATIO = 68.3216E+12 .

               CONVERGENCE CHECKS FOR EQUILIBRIUM ITERATION     1


 AVERAGE FORCE                      0.466       TIME AVG. FORCE       7.742E-02
 LARGEST RESIDUAL FORCE             2.403E-09   AT NODE       5027   DOF  1
   INSTANCE: COMPOSITEPLATE-1                                                                
 LARGEST INCREMENT OF DISP.         2.956E-04   AT NODE          9   DOF  1
   INSTANCE: COMPOSITEPLATE-1                                                                
 LARGEST CORRECTION TO DISP.       -2.999E-08   AT NODE       6187   DOF  1
   INSTANCE: COMPOSITEPLATE-1                                                                
          THE FORCE     EQUILIBRIUM EQUATIONS HAVE CONVERGED

 AVERAGE MOMENT                     9.145E-18   TIME AVG. MOMENT      1.000E-02
 LARGEST RESIDUAL MOMENT           -1.784E-16   AT NODE       5326   DOF  5
   INSTANCE: COMPOSITEPLATE-1                                                                
 LARGEST INCREMENT OF ROTATION     -2.728E-20   AT NODE        395   DOF  5
   INSTANCE: COMPOSITEPLATE-1                                                                
 LARGEST CORRECTION TO ROTATION    -5.085E-20   AT NODE        395   DOF  5
   INSTANCE: COMPOSITEPLATE-1                                                                
          THERE IS ZERO MOMENT    EVERYWHERE
 

 ***WARNING: THERE IS ZERO MOMENT EVERYWHERE IN THE MODEL BASED ON THE DEFAULT 
             CRITERION. PLEASE CHECK THE VALUE OF THE AVERAGE MOMENT DURING THE 
             CURRENT ITERATION TO VERIFY THAT THE MOMENT IS SMALL ENOUGH TO BE 
             TREATED AS ZERO. IF NOT, PLEASE USE THE SOLUTION CONTROLS TO RESET 
             THE CRITERION FOR ZERO MOMENT.
          TIME INCREMENT MAY NOW INCREASE TO    9.853E-03

 ITERATION SUMMARY FOR THE INCREMENT:   1 TOTAL ITERATIONS, OF WHICH
   0 ARE SEVERE DISCONTINUITY ITERATIONS AND  1 ARE EQUILIBRIUM ITERATIONS.

 TIME INCREMENT COMPLETED  6.568E-03,  FRACTION OF STEP COMPLETED  1.970E-02
 STEP TIME COMPLETED       1.970E-02,  TOTAL TIME COMPLETED        1.970E-02


  INCREMENT    19 STARTS. ATTEMPT NUMBER  1, TIME INCREMENT  9.853E-03

  NUMBER OF EQUATIONS =     80220     NUMBER OF FLOATING PT. OPERATIONS =  7.65E+09

     CHECK POINT   START OF SOLVER    

     CHECK POINT  END OF SOLVER       

       ELAPSED USER TIME (SEC)      =  0.90000    
       ELAPSED SYSTEM TIME (SEC)    =  0.10000    
       ELAPSED TOTAL CPU TIME (SEC) =   1.0000    
       ELAPSED WALLCLOCK TIME (SEC) =          0
 

 ***WARNING: SOLVER PROBLEM. NUMERICAL SINGULARITY WHEN PROCESSING NODE 
             COMPOSITEPLATE-1.4 D.O.F. 3 RATIO = 506.133E+12  .

               CONVERGENCE CHECKS FOR EQUILIBRIUM ITERATION     1


 AVERAGE FORCE                      0.699       TIME AVG. FORCE       0.110    
 LARGEST RESIDUAL FORCE             8.082E-09   AT NODE       5519   DOF  1
   INSTANCE: COMPOSITEPLATE-1                                                                
 LARGEST INCREMENT OF DISP.         4.434E-04   AT NODE          9   DOF  1
   INSTANCE: COMPOSITEPLATE-1                                                                
 LARGEST CORRECTION TO DISP.       -6.745E-08   AT NODE       6187   DOF  1
   INSTANCE: COMPOSITEPLATE-1                                                                
          THE FORCE     EQUILIBRIUM EQUATIONS HAVE CONVERGED

 AVERAGE MOMENT                     1.362E-17   TIME AVG. MOMENT      1.264E-02
                                                (FROM FORCE     FIELD)
 LARGEST RESIDUAL MOMENT            2.195E-16   AT NODE      12552   DOF  5
   INSTANCE: COMPOSITEPLATE-1                                                                
 LARGEST INCREMENT OF ROTATION      4.785E-20   AT NODE         13   DOF  5
   INSTANCE: COMPOSITEPLATE-1                                                                
 LARGEST CORRECTION TO ROTATION    -6.334E-20   AT NODE       3508   DOF  5
   INSTANCE: COMPOSITEPLATE-1                                                                
          THERE IS ZERO MOMENT    EVERYWHERE
          TIME INCREMENT MAY NOW INCREASE TO    1.478E-02

 ITERATION SUMMARY FOR THE INCREMENT:   1 TOTAL ITERATIONS, OF WHICH
   0 ARE SEVERE DISCONTINUITY ITERATIONS AND  1 ARE EQUILIBRIUM ITERATIONS.

 TIME INCREMENT COMPLETED  9.853E-03,  FRACTION OF STEP COMPLETED  2.955E-02
 STEP TIME COMPLETED       2.955E-02,  TOTAL TIME COMPLETED        2.955E-02


  INCREMENT    20 STARTS. ATTEMPT NUMBER  1, TIME INCREMENT  1.478E-02

  NUMBER OF EQUATIONS =     80220     NUMBER OF FLOATING PT. OPERATIONS =  7.65E+09

     CHECK POINT   START OF SOLVER    

     CHECK POINT  END OF SOLVER       

       ELAPSED USER TIME (SEC)      =   1.1000    
       ELAPSED SYSTEM TIME (SEC)    =   0.0000    
       ELAPSED TOTAL CPU TIME (SEC) =   1.1000    
       ELAPSED WALLCLOCK TIME (SEC) =          1
 

 ***WARNING: SOLVER PROBLEM. NUMERICAL SINGULARITY WHEN PROCESSING NODE 
             COMPOSITEPLATE-1.4 D.O.F. 3 RATIO = 55.2494E+12 .

               CONVERGENCE CHECKS FOR EQUILIBRIUM ITERATION     1


 AVERAGE FORCE                       1.05       TIME AVG. FORCE       0.157    
 LARGEST RESIDUAL FORCE             2.709E-08   AT NODE       5519   DOF  1
   INSTANCE: COMPOSITEPLATE-1                                                                
 LARGEST INCREMENT OF DISP.         6.651E-04   AT NODE          9   DOF  1
   INSTANCE: COMPOSITEPLATE-1                                                                
 LARGEST CORRECTION TO DISP.       -1.517E-07   AT NODE       6187   DOF  1
   INSTANCE: COMPOSITEPLATE-1                                                                
          THE FORCE     EQUILIBRIUM EQUATIONS HAVE CONVERGED

 AVERAGE MOMENT                     2.053E-17   TIME AVG. MOMENT      1.799E-02
                                                (FROM FORCE     FIELD)
 LARGEST RESIDUAL MOMENT            3.162E-16   AT NODE       8908   DOF  4
   INSTANCE: COMPOSITEPLATE-1                                                                
 LARGEST INCREMENT OF ROTATION     -8.399E-20   AT NODE         13   DOF  5
   INSTANCE: COMPOSITEPLATE-1                                                                
 LARGEST CORRECTION TO ROTATION    -1.558E-19   AT NODE         13   DOF  5
   INSTANCE: COMPOSITEPLATE-1                                                                
          THERE IS ZERO MOMENT    EVERYWHERE
          TIME INCREMENT MAY NOW INCREASE TO    2.217E-02

 ITERATION SUMMARY FOR THE INCREMENT:   1 TOTAL ITERATIONS, OF WHICH
   0 ARE SEVERE DISCONTINUITY ITERATIONS AND  1 ARE EQUILIBRIUM ITERATIONS.

 TIME INCREMENT COMPLETED  1.478E-02,  FRACTION OF STEP COMPLETED  4.433E-02
 STEP TIME COMPLETED       4.433E-02,  TOTAL TIME COMPLETED        4.433E-02


  INCREMENT    21 STARTS. ATTEMPT NUMBER  1, TIME INCREMENT  2.217E-02

  NUMBER OF EQUATIONS =     80220     NUMBER OF FLOATING PT. OPERATIONS =  7.65E+09

     CHECK POINT   START OF SOLVER    

     CHECK POINT  END OF SOLVER       

       ELAPSED USER TIME (SEC)      =  0.80000    
       ELAPSED SYSTEM TIME (SEC)    =   0.0000    
       ELAPSED TOTAL CPU TIME (SEC) =  0.80000    
       ELAPSED WALLCLOCK TIME (SEC) =          0
 

 ***WARNING: SOLVER PROBLEM. NUMERICAL SINGULARITY WHEN PROCESSING NODE 
             COMPOSITEPLATE-1.4 D.O.F. 3 RATIO = 49.9515E+12 .

               CONVERGENCE CHECKS FOR EQUILIBRIUM ITERATION     1


 AVERAGE FORCE                       1.57       TIME AVG. FORCE       0.225    
 LARGEST RESIDUAL FORCE            -9.107E-08   AT NODE       7403   DOF  1
   INSTANCE: COMPOSITEPLATE-1                                                                
 LARGEST INCREMENT OF DISP.         9.976E-04   AT NODE          9   DOF  1
   INSTANCE: COMPOSITEPLATE-1                                                                
 LARGEST CORRECTION TO DISP.       -3.409E-07   AT NODE       6187   DOF  1
   INSTANCE: COMPOSITEPLATE-1                                                                
          THE FORCE     EQUILIBRIUM EQUATIONS HAVE CONVERGED

 AVERAGE MOMENT                     3.064E-17   TIME AVG. MOMENT      2.566E-02
                                                (FROM FORCE     FIELD)
 LARGEST RESIDUAL MOMENT           -5.050E-16   AT NODE      14015   DOF  5
   INSTANCE: COMPOSITEPLATE-1                                                                
 LARGEST INCREMENT OF ROTATION      1.074E-19   AT NODE         13   DOF  5
   INSTANCE: COMPOSITEPLATE-1                                                                
 LARGEST CORRECTION TO ROTATION     2.333E-19   AT NODE         13   DOF  5
   INSTANCE: COMPOSITEPLATE-1                                                                
          THERE IS ZERO MOMENT    EVERYWHERE
          TIME INCREMENT MAY NOW INCREASE TO    3.325E-02

 ITERATION SUMMARY FOR THE INCREMENT:   1 TOTAL ITERATIONS, OF WHICH
   0 ARE SEVERE DISCONTINUITY ITERATIONS AND  1 ARE EQUILIBRIUM ITERATIONS.

 TIME INCREMENT COMPLETED  2.217E-02,  FRACTION OF STEP COMPLETED  6.650E-02
 STEP TIME COMPLETED       6.650E-02,  TOTAL TIME COMPLETED        6.650E-02


  INCREMENT    22 STARTS. ATTEMPT NUMBER  1, TIME INCREMENT  3.325E-02

  NUMBER OF EQUATIONS =     80220     NUMBER OF FLOATING PT. OPERATIONS =  7.65E+09

     CHECK POINT   START OF SOLVER    

     CHECK POINT  END OF SOLVER       

       ELAPSED USER TIME (SEC)      =   1.0000    
       ELAPSED SYSTEM TIME (SEC)    =   0.0000    
       ELAPSED TOTAL CPU TIME (SEC) =   1.0000    
       ELAPSED WALLCLOCK TIME (SEC) =          1
 

 ***WARNING: SOLVER PROBLEM. NUMERICAL SINGULARITY WHEN PROCESSING NODE 
             COMPOSITEPLATE-1.4 D.O.F. 3 RATIO = 17.6526E+12 .

               CONVERGENCE CHECKS FOR EQUILIBRIUM ITERATION     1


 AVERAGE FORCE                       2.36       TIME AVG. FORCE       0.322    
 LARGEST RESIDUAL FORCE             3.054E-07   AT NODE       4990   DOF  1
   INSTANCE: COMPOSITEPLATE-1                                                                
 LARGEST INCREMENT OF DISP.         1.496E-03   AT NODE          9   DOF  1
   INSTANCE: COMPOSITEPLATE-1                                                                
 LARGEST CORRECTION TO DISP.       -7.657E-07   AT NODE       1129   DOF  1
   INSTANCE: COMPOSITEPLATE-1                                                                
          THE FORCE     EQUILIBRIUM EQUATIONS HAVE CONVERGED

 AVERAGE MOMENT                     4.570E-17   TIME AVG. MOMENT      3.668E-02
                                                (FROM FORCE     FIELD)
 LARGEST RESIDUAL MOMENT            7.137E-16   AT NODE       7627   DOF  4
   INSTANCE: COMPOSITEPLATE-1                                                                
 LARGEST INCREMENT OF ROTATION     -1.878E-19   AT NODE         16   DOF  5
   INSTANCE: COMPOSITEPLATE-1                                                                
 LARGEST CORRECTION TO ROTATION    -2.643E-19   AT NODE         16   DOF  5
   INSTANCE: COMPOSITEPLATE-1                                                                
          THERE IS ZERO MOMENT    EVERYWHERE
          TIME INCREMENT MAY NOW INCREASE TO    4.988E-02

 ITERATION SUMMARY FOR THE INCREMENT:   1 TOTAL ITERATIONS, OF WHICH
   0 ARE SEVERE DISCONTINUITY ITERATIONS AND  1 ARE EQUILIBRIUM ITERATIONS.

 TIME INCREMENT COMPLETED  3.325E-02,  FRACTION OF STEP COMPLETED  0.100    
 STEP TIME COMPLETED       0.100    ,  TOTAL TIME COMPLETED        0.100    


  INCREMENT    23 STARTS. ATTEMPT NUMBER  1, TIME INCREMENT  4.988E-02

  NUMBER OF EQUATIONS =     80220     NUMBER OF FLOATING PT. OPERATIONS =  7.65E+09

     CHECK POINT   START OF SOLVER    

     CHECK POINT  END OF SOLVER       

       ELAPSED USER TIME (SEC)      =   1.0000    
       ELAPSED SYSTEM TIME (SEC)    =   0.0000    
       ELAPSED TOTAL CPU TIME (SEC) =   1.0000    
       ELAPSED WALLCLOCK TIME (SEC) =          1
 

 ***WARNING: SOLVER PROBLEM. NUMERICAL SINGULARITY WHEN PROCESSING NODE 
             COMPOSITEPLATE-1.4 D.O.F. 3 RATIO = 15.1761E+12 .

               CONVERGENCE CHECKS FOR EQUILIBRIUM ITERATION     1


 AVERAGE FORCE                       3.55       TIME AVG. FORCE       0.462    
 LARGEST RESIDUAL FORCE            -1.021E-06   AT NODE       7909   DOF  1
   INSTANCE: COMPOSITEPLATE-1                                                                
 LARGEST INCREMENT OF DISP.         2.245E-03   AT NODE          9   DOF  1
   INSTANCE: COMPOSITEPLATE-1                                                                
 LARGEST CORRECTION TO DISP.       -1.719E-06   AT NODE       1129   DOF  1
   INSTANCE: COMPOSITEPLATE-1                                                                
          THE FORCE     EQUILIBRIUM EQUATIONS HAVE CONVERGED

 AVERAGE MOMENT                     6.931E-17   TIME AVG. MOMENT      5.256E-02
                                                (FROM FORCE     FIELD)
 LARGEST RESIDUAL MOMENT            1.130E-15   AT NODE      14069   DOF  4
   INSTANCE: COMPOSITEPLATE-1                                                                
 LARGEST INCREMENT OF ROTATION     -1.524E-19   AT NODE        485   DOF  5
   INSTANCE: COMPOSITEPLATE-1                                                                
 LARGEST CORRECTION TO ROTATION     3.668E-19   AT NODE         16   DOF  5
   INSTANCE: COMPOSITEPLATE-1                                                                
          THERE IS ZERO MOMENT    EVERYWHERE
          TIME INCREMENT MAY NOW INCREASE TO    7.482E-02

 ITERATION SUMMARY FOR THE INCREMENT:   1 TOTAL ITERATIONS, OF WHICH
   0 ARE SEVERE DISCONTINUITY ITERATIONS AND  1 ARE EQUILIBRIUM ITERATIONS.

 TIME INCREMENT COMPLETED  4.988E-02,  FRACTION OF STEP COMPLETED  0.150    
 STEP TIME COMPLETED       0.150    ,  TOTAL TIME COMPLETED        0.150    


  INCREMENT    24 STARTS. ATTEMPT NUMBER  1, TIME INCREMENT  7.482E-02

  NUMBER OF EQUATIONS =     80220     NUMBER OF FLOATING PT. OPERATIONS =  7.65E+09

     CHECK POINT   START OF SOLVER    

     CHECK POINT  END OF SOLVER       

       ELAPSED USER TIME (SEC)      =  0.90000    
       ELAPSED SYSTEM TIME (SEC)    =   0.0000    
       ELAPSED TOTAL CPU TIME (SEC) =  0.90000    
       ELAPSED WALLCLOCK TIME (SEC) =          1
 

 ***WARNING: SOLVER PROBLEM. NUMERICAL SINGULARITY WHEN PROCESSING NODE 
             COMPOSITEPLATE-1.4 D.O.F. 3 RATIO = 71.5560E+12 .

               CONVERGENCE CHECKS FOR EQUILIBRIUM ITERATION     1


 AVERAGE FORCE                       5.32       TIME AVG. FORCE       0.665    
 LARGEST RESIDUAL FORCE             1.412E-03   AT NODE       7649   DOF  1
   INSTANCE: COMPOSITEPLATE-1                                                                
 LARGEST INCREMENT OF DISP.         3.367E-03   AT NODE          9   DOF  1
   INSTANCE: COMPOSITEPLATE-1                                                                
 LARGEST CORRECTION TO DISP.        4.874E-06   AT NODE        168   DOF  1
   INSTANCE: COMPOSITEPLATE-1                                                                
          THE FORCE     EQUILIBRIUM EQUATIONS HAVE CONVERGED

 AVERAGE MOMENT                     1.038E-16   TIME AVG. MOMENT      7.547E-02
                                                (FROM FORCE     FIELD)
 LARGEST RESIDUAL MOMENT           -1.735E-15   AT NODE       8951   DOF  4
   INSTANCE: COMPOSITEPLATE-1                                                                
 LARGEST INCREMENT OF ROTATION     -3.962E-19   AT NODE         13   DOF  5
   INSTANCE: COMPOSITEPLATE-1                                                                
 LARGEST CORRECTION TO ROTATION    -4.930E-19   AT NODE         13   DOF  5
   INSTANCE: COMPOSITEPLATE-1                                                                
          THERE IS ZERO MOMENT    EVERYWHERE
          TIME INCREMENT MAY NOW INCREASE TO    0.112    

 ITERATION SUMMARY FOR THE INCREMENT:   1 TOTAL ITERATIONS, OF WHICH
   0 ARE SEVERE DISCONTINUITY ITERATIONS AND  1 ARE EQUILIBRIUM ITERATIONS.

 TIME INCREMENT COMPLETED  7.482E-02,  FRACTION OF STEP COMPLETED  0.224    
 STEP TIME COMPLETED       0.224    ,  TOTAL TIME COMPLETED        0.224    


  INCREMENT    25 STARTS. ATTEMPT NUMBER  1, TIME INCREMENT  0.112    

  NUMBER OF EQUATIONS =     80220     NUMBER OF FLOATING PT. OPERATIONS =  7.65E+09

     CHECK POINT   START OF SOLVER    

     CHECK POINT  END OF SOLVER       

       ELAPSED USER TIME (SEC)      =  0.90000    
       ELAPSED SYSTEM TIME (SEC)    =   0.0000    
       ELAPSED TOTAL CPU TIME (SEC) =  0.90000    
       ELAPSED WALLCLOCK TIME (SEC) =          1
 

 ***WARNING: SOLVER PROBLEM. NUMERICAL SINGULARITY WHEN PROCESSING NODE 
             COMPOSITEPLATE-1.4 D.O.F. 3 RATIO = 36.3259E+12 .

               CONVERGENCE CHECKS FOR EQUILIBRIUM ITERATION     1


 AVERAGE FORCE                       7.99       TIME AVG. FORCE       0.958    
 LARGEST RESIDUAL FORCE             5.258E-03   AT NODE       5487   DOF  1
   INSTANCE: COMPOSITEPLATE-1                                                                
 LARGEST INCREMENT OF DISP.         5.050E-03   AT NODE          9   DOF  1
   INSTANCE: COMPOSITEPLATE-1                                                                
 LARGEST CORRECTION TO DISP.        3.178E-05   AT NODE        963   DOF  1
   INSTANCE: COMPOSITEPLATE-1                                                                
          FORCE     EQUILIBRIUM NOT ACHIEVED WITHIN TOLERANCE.

 AVERAGE MOMENT                     1.562E-16   TIME AVG. MOMENT      0.109    
                                                (FROM FORCE     FIELD)
 LARGEST RESIDUAL MOMENT           -2.501E-15   AT NODE       7728   DOF  4
   INSTANCE: COMPOSITEPLATE-1                                                                
 LARGEST INCREMENT OF ROTATION     -3.863E-19   AT NODE        348   DOF  5
   INSTANCE: COMPOSITEPLATE-1                                                                
 LARGEST CORRECTION TO ROTATION    -7.072E-19   AT NODE         10   DOF  5
   INSTANCE: COMPOSITEPLATE-1                                                                
          THERE IS ZERO MOMENT    EVERYWHERE

  NUMBER OF EQUATIONS =     80220     NUMBER OF FLOATING PT. OPERATIONS =  7.65E+09

     CHECK POINT   START OF SOLVER    

     CHECK POINT  END OF SOLVER       

       ELAPSED USER TIME (SEC)      =  0.90000    
       ELAPSED SYSTEM TIME (SEC)    =   0.0000    
       ELAPSED TOTAL CPU TIME (SEC) =  0.90000    
       ELAPSED WALLCLOCK TIME (SEC) =          1
 

 ***WARNING: SOLVER PROBLEM. NUMERICAL SINGULARITY WHEN PROCESSING NODE 
             COMPOSITEPLATE-1.4 D.O.F. 3 RATIO = 27.3797E+12 .

               CONVERGENCE CHECKS FOR EQUILIBRIUM ITERATION     2


 AVERAGE FORCE                       8.00       TIME AVG. FORCE       0.958    
 LARGEST RESIDUAL FORCE             1.164E-04   AT NODE       7682   DOF  1
   INSTANCE: COMPOSITEPLATE-1                                                                
 LARGEST INCREMENT OF DISP.         5.050E-03   AT NODE          9   DOF  1
   INSTANCE: COMPOSITEPLATE-1                                                                
 LARGEST CORRECTION TO DISP.        3.114E-07   AT NODE       7942   DOF  1
   INSTANCE: COMPOSITEPLATE-1                                                                
          THE FORCE     EQUILIBRIUM EQUATIONS HAVE CONVERGED

 AVERAGE MOMENT                     1.475E-16   TIME AVG. MOMENT      0.109    
                                                (FROM FORCE     FIELD)
 LARGEST RESIDUAL MOMENT            2.337E-15   AT NODE      15955   DOF  5
   INSTANCE: COMPOSITEPLATE-1                                                                
 LARGEST INCREMENT OF ROTATION     -3.894E-19   AT NODE        459   DOF  5
   INSTANCE: COMPOSITEPLATE-1                                                                
 LARGEST CORRECTION TO ROTATION    -3.567E-19   AT NODE        463   DOF  5
   INSTANCE: COMPOSITEPLATE-1                                                                
          THERE IS ZERO MOMENT    EVERYWHERE
          TIME INCREMENT MAY NOW INCREASE TO    0.168    

 ITERATION SUMMARY FOR THE INCREMENT:   2 TOTAL ITERATIONS, OF WHICH
   0 ARE SEVERE DISCONTINUITY ITERATIONS AND  2 ARE EQUILIBRIUM ITERATIONS.

 TIME INCREMENT COMPLETED  0.112    ,  FRACTION OF STEP COMPLETED  0.337    
 STEP TIME COMPLETED       0.337    ,  TOTAL TIME COMPLETED        0.337    


  INCREMENT    26 STARTS. ATTEMPT NUMBER  1, TIME INCREMENT  0.168    

  NUMBER OF EQUATIONS =     80220     NUMBER OF FLOATING PT. OPERATIONS =  7.65E+09

     CHECK POINT   START OF SOLVER    

     CHECK POINT  END OF SOLVER       

       ELAPSED USER TIME (SEC)      =  0.90000    
       ELAPSED SYSTEM TIME (SEC)    =   0.0000    
       ELAPSED TOTAL CPU TIME (SEC) =  0.90000    
       ELAPSED WALLCLOCK TIME (SEC) =          1
 

 ***WARNING: SOLVER PROBLEM. NUMERICAL SINGULARITY WHEN PROCESSING NODE 
             COMPOSITEPLATE-1.4 D.O.F. 3 RATIO = 27.0485E+12 .

               CONVERGENCE CHECKS FOR EQUILIBRIUM ITERATION     1


 AVERAGE FORCE                       12.0       TIME AVG. FORCE        1.38    
 LARGEST RESIDUAL FORCE             1.589E-02   AT NODE       5314   DOF  1
   INSTANCE: COMPOSITEPLATE-1                                                                
 LARGEST INCREMENT OF DISP.         7.575E-03   AT NODE          9   DOF  1
   INSTANCE: COMPOSITEPLATE-1                                                                
 LARGEST CORRECTION TO DISP.       -8.255E-05   AT NODE       8188   DOF  1
   INSTANCE: COMPOSITEPLATE-1                                                                
          FORCE     EQUILIBRIUM NOT ACHIEVED WITHIN TOLERANCE.

 AVERAGE MOMENT                     2.355E-16   TIME AVG. MOMENT      0.156    
                                                (FROM FORCE     FIELD)
 LARGEST RESIDUAL MOMENT            4.384E-15   AT NODE      13139   DOF  5
   INSTANCE: COMPOSITEPLATE-1                                                                
 LARGEST INCREMENT OF ROTATION     -6.136E-19   AT NODE        502   DOF  5
   INSTANCE: COMPOSITEPLATE-1                                                                
 LARGEST CORRECTION TO ROTATION     1.101E-18   AT NODE        459   DOF  5
   INSTANCE: COMPOSITEPLATE-1                                                                
          THERE IS ZERO MOMENT    EVERYWHERE

  NUMBER OF EQUATIONS =     80220     NUMBER OF FLOATING PT. OPERATIONS =  7.65E+09

     CHECK POINT   START OF SOLVER    

     CHECK POINT  END OF SOLVER       

       ELAPSED USER TIME (SEC)      =  0.90000    
       ELAPSED SYSTEM TIME (SEC)    =  0.10000    
       ELAPSED TOTAL CPU TIME (SEC) =   1.0000    
       ELAPSED WALLCLOCK TIME (SEC) =          1
 

 ***WARNING: SOLVER PROBLEM. NUMERICAL SINGULARITY WHEN PROCESSING NODE 
             COMPOSITEPLATE-1.4 D.O.F. 3 RATIO = 15.4583E+12 .

               CONVERGENCE CHECKS FOR EQUILIBRIUM ITERATION     2


 AVERAGE FORCE                       12.0       TIME AVG. FORCE        1.38    
 LARGEST RESIDUAL FORCE             7.464E-04   AT NODE       5530   DOF  1
   INSTANCE: COMPOSITEPLATE-1                                                                
 LARGEST INCREMENT OF DISP.         7.575E-03   AT NODE          9   DOF  1
   INSTANCE: COMPOSITEPLATE-1                                                                
 LARGEST CORRECTION TO DISP.        1.474E-06   AT NODE       7349   DOF  1
   INSTANCE: COMPOSITEPLATE-1                                                                
          THE FORCE     EQUILIBRIUM EQUATIONS HAVE CONVERGED

 AVERAGE MOMENT                     2.237E-16   TIME AVG. MOMENT      0.156    
                                                (FROM FORCE     FIELD)
 LARGEST RESIDUAL MOMENT            3.346E-15   AT NODE       3416   DOF  4
   INSTANCE: COMPOSITEPLATE-1                                                                
 LARGEST INCREMENT OF ROTATION     -5.527E-19   AT NODE          5   DOF  5
   INSTANCE: COMPOSITEPLATE-1                                                                
 LARGEST CORRECTION TO ROTATION     9.758E-19   AT NODE         16   DOF  5
   INSTANCE: COMPOSITEPLATE-1                                                                
          THERE IS ZERO MOMENT    EVERYWHERE
          TIME INCREMENT MAY NOW INCREASE TO    0.253    

 ITERATION SUMMARY FOR THE INCREMENT:   2 TOTAL ITERATIONS, OF WHICH
   0 ARE SEVERE DISCONTINUITY ITERATIONS AND  2 ARE EQUILIBRIUM ITERATIONS.

 TIME INCREMENT COMPLETED  0.168    ,  FRACTION OF STEP COMPLETED  0.505    
 STEP TIME COMPLETED       0.505    ,  TOTAL TIME COMPLETED        0.505    


  INCREMENT    27 STARTS. ATTEMPT NUMBER  1, TIME INCREMENT  0.253    

  NUMBER OF EQUATIONS =     80220     NUMBER OF FLOATING PT. OPERATIONS =  7.65E+09

     CHECK POINT   START OF SOLVER    

     CHECK POINT  END OF SOLVER       

       ELAPSED USER TIME (SEC)      =  0.90000    
       ELAPSED SYSTEM TIME (SEC)    =   0.0000    
       ELAPSED TOTAL CPU TIME (SEC) =  0.90000    
       ELAPSED WALLCLOCK TIME (SEC) =          1
 

 ***WARNING: THE SYSTEM MATRIX HAS 6 NEGATIVE EIGENVALUES.

[...]
 LARGEST CORRECTION TO ROTATION     6.447E-18   AT NODE        169   DOF  5
   INSTANCE: COMPOSITEPLATE-1                                                                
          THERE IS ZERO MOMENT    EVERYWHERE

  NUMBER OF EQUATIONS =     80220     NUMBER OF FLOATING PT. OPERATIONS =  7.65E+09

     CHECK POINT   START OF SOLVER    

     CHECK POINT  END OF SOLVER       

       ELAPSED USER TIME (SEC)      =  0.90000    
       ELAPSED SYSTEM TIME (SEC)    =   0.0000    
       ELAPSED TOTAL CPU TIME (SEC) =  0.90000    
       ELAPSED WALLCLOCK TIME (SEC) =          1
 

 ***WARNING: SOLVER PROBLEM. NUMERICAL SINGULARITY WHEN PROCESSING NODE 
             COMPOSITEPLATE-1.4 D.O.F. 3 RATIO = 56.8220E+12 .

               CONVERGENCE CHECKS FOR EQUILIBRIUM ITERATION     3


 AVERAGE FORCE                       19.0       TIME AVG. FORCE        2.59    
 LARGEST RESIDUAL FORCE             1.344E-04   AT NODE       7471   DOF  2
   INSTANCE: COMPOSITEPLATE-1                                                                
 LARGEST INCREMENT OF DISP.         2.728E-03   AT NODE          9   DOF  1
   INSTANCE: COMPOSITEPLATE-1                                                                
 LARGEST CORRECTION TO DISP.        1.336E-07   AT NODE       7475   DOF  1
   INSTANCE: COMPOSITEPLATE-1                                                                
          THE FORCE     EQUILIBRIUM EQUATIONS HAVE CONVERGED

 AVERAGE MOMENT                     3.732E-16   TIME AVG. MOMENT      0.324    
                                                (FROM FORCE     FIELD)
 LARGEST RESIDUAL MOMENT           -7.057E-15   AT NODE       9228   DOF  4
   INSTANCE: COMPOSITEPLATE-1                                                                
 LARGEST INCREMENT OF ROTATION      9.151E-18   AT NODE        171   DOF  5
   INSTANCE: COMPOSITEPLATE-1                                                                
 LARGEST CORRECTION TO ROTATION    -1.034E-17   AT NODE        169   DOF  5
   INSTANCE: COMPOSITEPLATE-1                                                                
          THERE IS ZERO MOMENT    EVERYWHERE
          TIME INCREMENT MAY NOW INCREASE TO    9.093E-02

 ITERATION SUMMARY FOR THE INCREMENT:   3 TOTAL ITERATIONS, OF WHICH
   0 ARE SEVERE DISCONTINUITY ITERATIONS AND  3 ARE EQUILIBRIUM ITERATIONS.

 TIME INCREMENT COMPLETED  6.062E-02,  FRACTION OF STEP COMPLETED  0.818    
 STEP TIME COMPLETED       0.818    ,  TOTAL TIME COMPLETED        0.818    


  INCREMENT    29 STARTS. ATTEMPT NUMBER  1, TIME INCREMENT  9.093E-02

  NUMBER OF EQUATIONS =     80220     NUMBER OF FLOATING PT. OPERATIONS =  7.65E+09

     CHECK POINT   START OF SOLVER    

     CHECK POINT  END OF SOLVER       

       ELAPSED USER TIME (SEC)      =  0.90000    
       ELAPSED SYSTEM TIME (SEC)    =   0.0000    
       ELAPSED TOTAL CPU TIME (SEC) =  0.90000    
       ELAPSED WALLCLOCK TIME (SEC) =          1
 

 ***WARNING: SOLVER PROBLEM. NUMERICAL SINGULARITY WHEN PROCESSING NODE 
             COMPOSITEPLATE-1.4 D.O.F. 3 RATIO = 20.0703E+12 .

               CONVERGENCE CHECKS FOR EQUILIBRIUM ITERATION     1


 AVERAGE FORCE                       20.8       TIME AVG. FORCE        3.22    
 LARGEST RESIDUAL FORCE              4.80       AT NODE       7435   DOF  1
   INSTANCE: COMPOSITEPLATE-1                                                                
 LARGEST INCREMENT OF DISP.         4.092E-03   AT NODE          9   DOF  1
   INSTANCE: COMPOSITEPLATE-1                                                                
 LARGEST CORRECTION TO DISP.        2.355E-04   AT NODE       5517   DOF  1
   INSTANCE: COMPOSITEPLATE-1                                                                
          FORCE     EQUILIBRIUM NOT ACHIEVED WITHIN TOLERANCE.

 AVERAGE MOMENT                     4.587E-16   TIME AVG. MOMENT      0.423    
                                                (FROM FORCE     FIELD)
 LARGEST RESIDUAL MOMENT            3.901E-14   AT NODE       7587   DOF  5
   INSTANCE: COMPOSITEPLATE-1                                                                
 LARGEST INCREMENT OF ROTATION      1.624E-17   AT NODE        170   DOF  5
   INSTANCE: COMPOSITEPLATE-1                                                                
 LARGEST CORRECTION TO ROTATION     9.128E-18   AT NODE       5444   DOF  5
   INSTANCE: COMPOSITEPLATE-1                                                                
          THERE IS ZERO MOMENT    EVERYWHERE

  NUMBER OF EQUATIONS =     80220     NUMBER OF FLOATING PT. OPERATIONS =  7.65E+09

     CHECK POINT   START OF SOLVER    

     CHECK POINT  END OF SOLVER       

       ELAPSED USER TIME (SEC)      =  0.90000    
       ELAPSED SYSTEM TIME (SEC)    =   0.0000    
       ELAPSED TOTAL CPU TIME (SEC) =  0.90000    
       ELAPSED WALLCLOCK TIME (SEC) =          1
 

 ***WARNING: SOLVER PROBLEM. NUMERICAL SINGULARITY WHEN PROCESSING NODE 
             COMPOSITEPLATE-1.4 D.O.F. 3 RATIO = 21.5214E+12 .

               CONVERGENCE CHECKS FOR EQUILIBRIUM ITERATION     2


 AVERAGE FORCE                       20.8       TIME AVG. FORCE        3.22    
 LARGEST RESIDUAL FORCE             -1.95       AT NODE       7437   DOF  1
   INSTANCE: COMPOSITEPLATE-1                                                                
 LARGEST INCREMENT OF DISP.         4.092E-03   AT NODE          9   DOF  1
   INSTANCE: COMPOSITEPLATE-1                                                                
 LARGEST CORRECTION TO DISP.       -3.932E-05   AT NODE       7587   DOF  1
   INSTANCE: COMPOSITEPLATE-1                                                                
          FORCE     EQUILIBRIUM NOT ACHIEVED WITHIN TOLERANCE.

 AVERAGE MOMENT                     4.309E-16   TIME AVG. MOMENT      0.423    
                                                (FROM FORCE     FIELD)
 LARGEST RESIDUAL MOMENT           -2.249E-14   AT NODE       7474   DOF  5
   INSTANCE: COMPOSITEPLATE-1                                                                
 LARGEST INCREMENT OF ROTATION     -1.303E-17   AT NODE       5409   DOF  5
   INSTANCE: COMPOSITEPLATE-1                                                                
 LARGEST CORRECTION TO ROTATION     7.887E-18   AT NODE        897   DOF  5
   INSTANCE: COMPOSITEPLATE-1                                                                
          THERE IS ZERO MOMENT    EVERYWHERE

  NUMBER OF EQUATIONS =     80220     NUMBER OF FLOATING PT. OPERATIONS =  7.65E+09

     CHECK POINT   START OF SOLVER    

     CHECK POINT  END OF SOLVER       

       ELAPSED USER TIME (SEC)      =  0.90000    
       ELAPSED SYSTEM TIME (SEC)    =   0.0000    
       ELAPSED TOTAL CPU TIME (SEC) =  0.90000    
       ELAPSED WALLCLOCK TIME (SEC) =          1
 

 ***WARNING: SOLVER PROBLEM. NUMERICAL SINGULARITY WHEN PROCESSING NODE 
             COMPOSITEPLATE-1.4 D.O.F. 3 RATIO = 28.3076E+12 .

               CONVERGENCE CHECKS FOR EQUILIBRIUM ITERATION     3


 AVERAGE FORCE                       20.8       TIME AVG. FORCE        3.22    
 LARGEST RESIDUAL FORCE             1.731E-02   AT NODE       7437   DOF  1
   INSTANCE: COMPOSITEPLATE-1                                                                
 LARGEST INCREMENT OF DISP.         4.092E-03   AT NODE          9   DOF  1
   INSTANCE: COMPOSITEPLATE-1                                                                
 LARGEST CORRECTION TO DISP.       -1.374E-05   AT NODE       7437   DOF  1
   INSTANCE: COMPOSITEPLATE-1                                                                
          FORCE     EQUILIBRIUM NOT ACHIEVED WITHIN TOLERANCE.

 AVERAGE MOMENT                     4.252E-16   TIME AVG. MOMENT      0.423    
                                                (FROM FORCE     FIELD)
 LARGEST RESIDUAL MOMENT           -8.720E-15   AT NODE       7627   DOF  5
   INSTANCE: COMPOSITEPLATE-1                                                                
 LARGEST INCREMENT OF ROTATION      1.349E-17   AT NODE        212   DOF  5
   INSTANCE: COMPOSITEPLATE-1                                                                
 LARGEST CORRECTION TO ROTATION    -8.769E-18   AT NODE       5446   DOF  5
   INSTANCE: COMPOSITEPLATE-1                                                                
          THERE IS ZERO MOMENT    EVERYWHERE

  NUMBER OF EQUATIONS =     80220     NUMBER OF FLOATING PT. OPERATIONS =  7.65E+09

     CHECK POINT   START OF SOLVER    

     CHECK POINT  END OF SOLVER       

       ELAPSED USER TIME (SEC)      =  0.90000    
       ELAPSED SYSTEM TIME (SEC)    =   0.0000    
       ELAPSED TOTAL CPU TIME (SEC) =  0.90000    
       ELAPSED WALLCLOCK TIME (SEC) =          1
 

 ***WARNING: SOLVER PROBLEM. NUMERICAL SINGULARITY WHEN PROCESSING NODE 
             COMPOSITEPLATE-1.4 D.O.F. 3 RATIO = 31.5003E+12 .

               CONVERGENCE CHECKS FOR EQUILIBRIUM ITERATION     4


 AVERAGE FORCE                       20.8       TIME AVG. FORCE        3.22    
 LARGEST RESIDUAL FORCE            -2.464E-04   AT NODE       7437   DOF  1
   INSTANCE: COMPOSITEPLATE-1                                                                
 LARGEST INCREMENT OF DISP.         4.092E-03   AT NODE          9   DOF  1
   INSTANCE: COMPOSITEPLATE-1                                                                
 LARGEST CORRECTION TO DISP.        1.391E-07   AT NODE       7437   DOF  1
   INSTANCE: COMPOSITEPLATE-1                                                                
          THE FORCE     EQUILIBRIUM EQUATIONS HAVE CONVERGED

 AVERAGE MOMENT                     4.194E-16   TIME AVG. MOMENT      0.423    
                                                (FROM FORCE     FIELD)
 LARGEST RESIDUAL MOMENT           -6.312E-15   AT NODE      13345   DOF  4
   INSTANCE: COMPOSITEPLATE-1                                                                
 LARGEST INCREMENT OF ROTATION     -1.603E-17   AT NODE        211   DOF  5
   INSTANCE: COMPOSITEPLATE-1                                                                
 LARGEST CORRECTION TO ROTATION    -1.238E-17   AT NODE        212   DOF  5
   INSTANCE: COMPOSITEPLATE-1                                                                
          THERE IS ZERO MOMENT    EVERYWHERE
          TIME INCREMENT MAY NOW INCREASE TO    0.136    

 ITERATION SUMMARY FOR THE INCREMENT:   4 TOTAL ITERATIONS, OF WHICH
   0 ARE SEVERE DISCONTINUITY ITERATIONS AND  4 ARE EQUILIBRIUM ITERATIONS.

 TIME INCREMENT COMPLETED  9.093E-02,  FRACTION OF STEP COMPLETED  0.909    
 STEP TIME COMPLETED       0.909    ,  TOTAL TIME COMPLETED        0.909    


  INCREMENT    30 STARTS. ATTEMPT NUMBER  1, TIME INCREMENT  9.093E-02

  NUMBER OF EQUATIONS =     80220     NUMBER OF FLOATING PT. OPERATIONS =  7.65E+09

     CHECK POINT   START OF SOLVER    

     CHECK POINT  END OF SOLVER       

       ELAPSED USER TIME (SEC)      =  0.90000    
       ELAPSED SYSTEM TIME (SEC)    =   0.0000    
       ELAPSED TOTAL CPU TIME (SEC) =  0.90000    
       ELAPSED WALLCLOCK TIME (SEC) =          1
 

 ***WARNING: SOLVER PROBLEM. NUMERICAL SINGULARITY WHEN PROCESSING NODE 
             COMPOSITEPLATE-1.4 D.O.F. 3 RATIO = 46.1181E+12 .

               CONVERGENCE CHECKS FOR EQUILIBRIUM ITERATION     1


 AVERAGE FORCE                       22.7       TIME AVG. FORCE        3.87    
 LARGEST RESIDUAL FORCE             -4.21       AT NODE       7543   DOF  1
   INSTANCE: COMPOSITEPLATE-1                                                                
 LARGEST INCREMENT OF DISP.         4.092E-03   AT NODE          9   DOF  1
   INSTANCE: COMPOSITEPLATE-1                                                                
 LARGEST CORRECTION TO DISP.        2.640E-04   AT NODE        930   DOF  1
   INSTANCE: COMPOSITEPLATE-1                                                                
          FORCE     EQUILIBRIUM NOT ACHIEVED WITHIN TOLERANCE.

 AVERAGE MOMENT                     4.934E-16   TIME AVG. MOMENT      0.526    
                                                (FROM FORCE     FIELD)
 LARGEST RESIDUAL MOMENT            2.235E-14   AT NODE       5410   DOF  5
   INSTANCE: COMPOSITEPLATE-1                                                                
 LARGEST INCREMENT OF ROTATION     -2.486E-17   AT NODE        211   DOF  5
   INSTANCE: COMPOSITEPLATE-1                                                                
 LARGEST CORRECTION TO ROTATION     1.296E-17   AT NODE       5444   DOF  5
   INSTANCE: COMPOSITEPLATE-1                                                                
          THERE IS ZERO MOMENT    EVERYWHERE

  NUMBER OF EQUATIONS =     80220     NUMBER OF FLOATING PT. OPERATIONS =  7.65E+09

     CHECK POINT   START OF SOLVER    

     CHECK POINT  END OF SOLVER       

       ELAPSED USER TIME (SEC)      =  0.90000    
       ELAPSED SYSTEM TIME (SEC)    =   0.0000    
       ELAPSED TOTAL CPU TIME (SEC) =  0.90000    
       ELAPSED WALLCLOCK TIME (SEC) =          1
 

 ***WARNING: SOLVER PROBLEM. NUMERICAL SINGULARITY WHEN PROCESSING NODE 
             COMPOSITEPLATE-1.4 D.O.F. 3 RATIO = 124.232E+12  .

               CONVERGENCE CHECKS FOR EQUILIBRIUM ITERATION     2


 AVERAGE FORCE                       22.7       TIME AVG. FORCE        3.87    
 LARGEST RESIDUAL FORCE             0.562       AT NODE       7432   DOF  1
   INSTANCE: COMPOSITEPLATE-1                                                                
 LARGEST INCREMENT OF DISP.         4.092E-03   AT NODE          9   DOF  1
   INSTANCE: COMPOSITEPLATE-1                                                                
 LARGEST CORRECTION TO DISP.       -4.097E-05   AT NODE       7548   DOF  1
   INSTANCE: COMPOSITEPLATE-1                                                                
          FORCE     EQUILIBRIUM NOT ACHIEVED WITHIN TOLERANCE.

 AVERAGE MOMENT                     4.678E-16   TIME AVG. MOMENT      0.526    
                                                (FROM FORCE     FIELD)
 LARGEST RESIDUAL MOMENT           -1.395E-14   AT NODE       7432   DOF  5
   INSTANCE: COMPOSITEPLATE-1                                                                
 LARGEST INCREMENT OF ROTATION     -2.470E-17   AT NODE        211   DOF  5
   INSTANCE: COMPOSITEPLATE-1                                                                
 LARGEST CORRECTION TO ROTATION    -1.502E-17   AT NODE        171   DOF  5
   INSTANCE: COMPOSITEPLATE-1                                                                
          THERE IS ZERO MOMENT    EVERYWHERE

  NUMBER OF EQUATIONS =     80220     NUMBER OF FLOATING PT. OPERATIONS =  7.65E+09

     CHECK POINT   START OF SOLVER    

     CHECK POINT  END OF SOLVER       

       ELAPSED USER TIME (SEC)      =  0.90000    
       ELAPSED SYSTEM TIME (SEC)    =  0.10000    
       ELAPSED TOTAL CPU TIME (SEC) =   1.0000    
       ELAPSED WALLCLOCK TIME (SEC) =          1
 

 ***WARNING: SOLVER PROBLEM. NUMERICAL SINGULARITY WHEN PROCESSING NODE 
             COMPOSITEPLATE-1.4 D.O.F. 3 RATIO = 184.228E+12  .

               CONVERGENCE CHECKS FOR EQUILIBRIUM ITERATION     3


 AVERAGE FORCE                       22.7       TIME AVG. FORCE        3.87    
 LARGEST RESIDUAL FORCE            -9.071E-02   AT NODE       5521   DOF  1
   INSTANCE: COMPOSITEPLATE-1                                                                
 LARGEST INCREMENT OF DISP.         4.092E-03   AT NODE          9   DOF  1
   INSTANCE: COMPOSITEPLATE-1                                                                
 LARGEST CORRECTION TO DISP.       -1.040E-05   AT NODE       7759   DOF  1
   INSTANCE: COMPOSITEPLATE-1                                                                
          FORCE     EQUILIBRIUM NOT ACHIEVED WITHIN TOLERANCE.

 AVERAGE MOMENT                     4.649E-16   TIME AVG. MOMENT      0.526    
                                                (FROM FORCE     FIELD)
 LARGEST RESIDUAL MOMENT            7.085E-15   AT NODE       5521   DOF  5
   INSTANCE: COMPOSITEPLATE-1                                                                
 LARGEST INCREMENT OF ROTATION     -2.522E-17   AT NODE        211   DOF  5
   INSTANCE: COMPOSITEPLATE-1                                                                
 LARGEST CORRECTION TO ROTATION    -9.702E-18   AT NODE        919   DOF  5
   INSTANCE: COMPOSITEPLATE-1                                                                
          THERE IS ZERO MOMENT    EVERYWHERE

  NUMBER OF EQUATIONS =     80220     NUMBER OF FLOATING PT. OPERATIONS =  7.65E+09

     CHECK POINT   START OF SOLVER    

     CHECK POINT  END OF SOLVER       

       ELAPSED USER TIME (SEC)      =   1.0000    
       ELAPSED SYSTEM TIME (SEC)    =   0.0000    
       ELAPSED TOTAL CPU TIME (SEC) =   1.0000    
       ELAPSED WALLCLOCK TIME (SEC) =          1
 

 ***WARNING: SOLVER PROBLEM. NUMERICAL SINGULARITY WHEN PROCESSING NODE 
             COMPOSITEPLATE-1.4 D.O.F. 3 RATIO = 19.6482E+12 .

               CONVERGENCE CHECKS FOR EQUILIBRIUM ITERATION     4


 AVERAGE FORCE                       22.7       TIME AVG. FORCE        3.87    
 LARGEST RESIDUAL FORCE             2.396E-03   AT NODE       5521   DOF  1
   INSTANCE: COMPOSITEPLATE-1                                                                
 LARGEST INCREMENT OF DISP.         4.092E-03   AT NODE          9   DOF  1
   INSTANCE: COMPOSITEPLATE-1                                                                
 LARGEST CORRECTION TO DISP.       -1.993E-06   AT NODE       5521   DOF  1
   INSTANCE: COMPOSITEPLATE-1                                                                
          THE FORCE     EQUILIBRIUM EQUATIONS HAVE CONVERGED

 AVERAGE MOMENT                     4.647E-16   TIME AVG. MOMENT      0.526    
                                                (FROM FORCE     FIELD)
 LARGEST RESIDUAL MOMENT           -7.221E-15   AT NODE      12452   DOF  4
   INSTANCE: COMPOSITEPLATE-1                                                                
 LARGEST INCREMENT OF ROTATION      3.133E-17   AT NODE        170   DOF  5
   INSTANCE: COMPOSITEPLATE-1                                                                
 LARGEST CORRECTION TO ROTATION     1.178E-17   AT NODE        170   DOF  5
   INSTANCE: COMPOSITEPLATE-1                                                                
          THERE IS ZERO MOMENT    EVERYWHERE

 ITERATION SUMMARY FOR THE INCREMENT:   4 TOTAL ITERATIONS, OF WHICH
   0 ARE SEVERE DISCONTINUITY ITERATIONS AND  4 ARE EQUILIBRIUM ITERATIONS.

 TIME INCREMENT COMPLETED  9.093E-02,  FRACTION OF STEP COMPLETED   1.00    
 STEP TIME COMPLETED        1.00    ,  TOTAL TIME COMPLETED         1.00    


          THE ANALYSIS HAS BEEN COMPLETED



     ANALYSIS SUMMARY:
     TOTAL OF         30  INCREMENTS
                       1  CUTBACKS IN AUTOMATIC INCREMENTATION
                      48  ITERATIONS INCLUDING CONTACT ITERATIONS IF PRESENT
                      48  PASSES THROUGH THE EQUATION SOLVER OF WHICH 
                      48  INVOLVE MATRIX DECOMPOSITION, INCLUDING
                       0  DECOMPOSITION(S) OF THE MASS MATRIX
                       1  REORDERING OF EQUATIONS TO MINIMIZE WAVEFRONT
                       0  ADDITIONAL RESIDUAL EVALUATIONS FOR LINE SEARCHES
                       0  ADDITIONAL OPERATOR EVALUATIONS FOR LINE SEARCHES
                       2  WARNING MESSAGES DURING USER INPUT PROCESSING
                      71  WARNING MESSAGES DURING ANALYSIS
                      50  ANALYSIS WARNINGS ARE NUMERICAL PROBLEM MESSAGES
                       2  ANALYSIS WARNINGS ARE NEGATIVE EIGENVALUE MESSAGES
                       0  ERROR MESSAGES



     JOB TIME SUMMARY
       USER TIME (SEC)      =   139.00    
       SYSTEM TIME (SEC)    =   6.1000    
       TOTAL CPU TIME (SEC) =   145.10    
       WALLCLOCK TIME (SEC) =        145
