 Abaqus/Standard 3DEXPERIENCE R2017x                  DATE 21-Apr-2019 TIME 20:11:32
 SUMMARY OF JOB INFORMATION:
 STEP  INC ATT SEVERE EQUIL TOTAL  TOTAL      STEP       INC OF       DOF    IF
               DISCON ITERS ITERS  TIME/    TIME/LPF    TIME/LPF    MONITOR RIKS
               ITERS               FREQ
   1     1   1     0     2     2  1.00e-005  1.00e-005  1.000e-005
   1     2   1     0     1     1  2.00e-005  2.00e-005  1.000e-005
   1     3   1     0     1     1  3.50e-005  3.50e-005  1.500e-005
   1     4   1     0     1     1  5.75e-005  5.75e-005  2.250e-005
   1     5   1     0     1     1  9.13e-005  9.13e-005  3.375e-005
   1     6   1     0     1     1  0.000142   0.000142   5.063e-005
   1     7   1     0     1     1  0.000218   0.000218   7.594e-005
   1     8   1     0     1     1  0.000332   0.000332   0.0001139 
   1     9   1     0     1     1  0.000503   0.000503   0.0001709 
   1    10   1     0     1     1  0.000759   0.000759   0.0002563 
   1    11   1     0     1     1  0.00114    0.00114    0.0003844 
   1    12   1     0     1     1  0.00172    0.00172    0.0005767 
   1    13   1     0     1     1  0.00258    0.00258    0.0008650 
   1    14   1     0     1     1  0.00388    0.00388    0.001297  
   1    15   1     0     1     1  0.00583    0.00583    0.001946  
   1    16   1     0     1     1  0.00875    0.00875    0.002919  
   1    17   1     0     1     1  0.0131     0.0131     0.004379  
   1    18   1     0     1     1  0.0197     0.0197     0.006568  
   1    19   1     0     1     1  0.0295     0.0295     0.009853  
   1    20   1     0     1     1  0.0443     0.0443     0.01478   
   1    21   1     0     1     1  0.0665     0.0665     0.02217   
   1    22   1     0     1     1  0.0997     0.0997     0.03325   
   1    23   1     0     1     1  0.150      0.150      0.04988   
   1    24   1     0     1     1  0.224      0.224      0.07482   
   1    25   1     0     1     1  0.337      0.337      0.1122    
   1    26   1     0     2     2  0.505      0.505      0.1683    
   1    27   1     0     3     3  0.758      0.758      0.2525    
   1    28   1U    0     4     4  0.758      0.758      0.2425    
   1    28   2     0     3     3  0.818      0.818      0.06062   
   1    29   1     0     3     3  0.909      0.909      0.09093   
   1    30   1U    0     4     4  0.909      0.909      0.09093   
   1    30   2     0     2     2  0.932      0.932      0.02273   
   1    31   1U    0     4     4  0.932      0.932      0.03410   
   1    31   2     0     2     2  0.940      0.940      0.008525  
   1    32   1     0     2     2  0.953      0.953      0.01279   
   1    33   1U    0     5     5  0.953      0.953      0.01918   
   1    33   2     0     1     1  0.958      0.958      0.004795  
   1    34   1U    0     8     8  0.958      0.958      0.007193  
   1    34   2     0     1     1  0.960      0.960      0.001798  
   1    35   1     0     1     1  0.962      0.962      0.002697  
   1    36   1U    0     4     4  0.962      0.962      0.004046  
   1    36   2     0     1     1  0.963      0.963      0.001011  
   1    37   1     0     1     1  0.965      0.965      0.001517  
   1    38   1     0     4     4  0.967      0.967      0.002276  
   1    39   1U    0     4     4  0.967      0.967      0.003414  
   1    39   2     0     1     1  0.968      0.968      0.0008534 
   1    40   1     0     1     1  0.969      0.969      0.001280  
   1    41   1     0     1     1  0.971      0.971      0.001920  
   1    42   1     0     1     1  0.974      0.974      0.002880  
   1    43   1U    0     4     4  0.974      0.974      0.004320  
   1    43   2     0     1     1  0.975      0.975      0.001080  
   1    44   1U    0     5     5  0.975      0.975      0.001620  
   1    44   2     0     1     1  0.976      0.976      0.0004050 
   1    45   1     0     1     1  0.976      0.976      0.0006076 
   1    46   1     0     2     2  0.977      0.977      0.0009113 
   1    47   1     0     7     7  0.979      0.979      0.001367  
   1    48   1     0     6     6  0.980      0.980      0.001367  
   1    49   1     0     7     7  0.981      0.981      0.001367  
   1    50   1U    0     4     4  0.981      0.981      0.001367  
   1    50   2     0     1     1  0.982      0.982      0.0003418 
   1    51   1     0     1     1  0.982      0.982      0.0003418 
   1    52   1     0     1     1  0.982      0.982      0.0005126 
   1    53   1U    0     4     4  0.982      0.982      0.0007689 
   1    53   2     0     5     5  0.983      0.983      0.0001922 
   1    54   1     0     5     5  0.983      0.983      0.0001922 
   1    55   1     0     2     2  0.983      0.983      0.0001922 
   1    56   1     0     2     2  0.983      0.983      0.0001922 
   1    57   1     0     2     2  0.984      0.984      0.0002884 
   1    58   1     0     3     3  0.984      0.984      0.0004325 
   1    59   1     0     4     4  0.985      0.985      0.0006488 
   1    60   1     0    10    10  0.986      0.986      0.0009732 
   1    61   1U    0     6     6  0.986      0.986      0.0009732 
   1    61   2     0     2     2  0.986      0.986      0.0002433 
   1    62   1     0     2     2  0.986      0.986      0.0002433 
   1    63   1     0     3     3  0.986      0.986      0.0003649 
   1    64   1U    0     9     9  0.986      0.986      0.0005474 
   1    64   2     0     6     6  0.987      0.987      0.0002737 
   1    65   1     0     6     6  0.987      0.987      0.0002737 
   1    66   1     0     2     2  0.987      0.987      0.0002737 
   1    67   1     0     2     2  0.988      0.988      0.0002737 
   1    68   1     0     3     3  0.988      0.988      0.0004106 
   1    69   1     0     5     5  0.989      0.989      0.0006158 
   1    70   1     0     5     5  0.989      0.989      0.0006158 
   1    71   1     0     6     6  0.990      0.990      0.0006158 
   1    72   1     0     3     3  0.990      0.990      0.0006158 
   1    73   1     0     4     4  0.991      0.991      0.0006158 
   1    74   1     0     5     5  0.992      0.992      0.0009238 
   1    75   1     0    12    12  0.993      0.993      0.0009238 
   1    76   1     0     4     4  0.994      0.994      0.0006928 
   1    77   1     0     5     5  0.994      0.994      0.0006928 
   1    78   1     0     9     9  0.995      0.995      0.0006928 
   1    79   1     0     7     7  0.996      0.996      0.0006928 
   1    80   1     0     5     5  0.996      0.996      0.0006928 
   1    81   1     0     4     4  0.997      0.997      0.0006928 
   1    82   1     0     4     4  0.998      0.998      0.0006928 
   1    83   1     0     9     9  0.999      0.999      0.001039  
   1    84   1     0    10    10  1.00       1.00       0.001039  
   1    85   1     0     1     1  1.00       1.00       0.0002311 
                          
 THE ANALYSIS HAS COMPLETED SUCCESSFULLY
