1

   Abaqus 3DEXPERIENCE R2017x                                  Date 22-Apr-2019   Time 21:37:26
   For use by Supplied by Team-SolidSQUAD under license from Dassault Systemes or its subsidiary.

                                                                                 
                                                                                 
 STEP    1     INCREMENT     1     STEP TIME    0.00    


                        S T E P       1     S T A T I C   A N A L Y S I S


                                                                                          

     AUTOMATIC TIME CONTROL WITH -
          A SUGGESTED INITIAL TIME INCREMENT OF                1.000E-05
          AND A TOTAL TIME PERIOD OF                            1.00    
          THE MINIMUM TIME INCREMENT ALLOWED IS                1.000E-20
          THE MAXIMUM TIME INCREMENT ALLOWED IS                 1.00    

     LINEAR EQUATION SOLVER TYPE         DIRECT SPARSE

 CONVERGENCE TOLERANCE PARAMETERS FOR FORCE    
     CRITERION FOR RESIDUAL FORCE     FOR A NONLINEAR PROBLEM          5.000E-03
     CRITERION FOR DISP.    CORRECTION IN A NONLINEAR PROBLEM          1.000E-02
     INITIAL VALUE OF TIME AVERAGE FORCE                               1.000E-02
     AVERAGE FORCE     IS TIME AVERAGE FORCE    
     ALTERNATE CRIT. FOR RESIDUAL FORCE     FOR A NONLINEAR PROBLEM    2.000E-02
     CRITERION FOR ZERO FORCE     RELATIVE TO TIME AVRG. FORCE         1.000E-05
     CRITERION FOR RESIDUAL FORCE     WHEN THERE IS ZERO FLUX          1.000E-05
     CRITERION FOR DISP.    CORRECTION WHEN THERE IS ZERO FLUX         1.000E-03
     CRITERION FOR RESIDUAL FORCE     FOR A LINEAR INCREMENT           1.000E-08
     FIELD CONVERSION RATIO                                             1.00    
     CRITERION FOR ZERO FORCE     REL. TO TIME AVRG. MAX. FORCE        1.000E-05
     CRITERION FOR ZERO DISP.    RELATIVE TO CHARACTERISTIC LENGTH     1.000E-08

 CONVERGENCE TOLERANCE PARAMETERS FOR MOMENT   
     CRITERION FOR RESIDUAL MOMENT    FOR A NONLINEAR PROBLEM          5.000E-03
     CRITERION FOR ROTATION CORRECTION IN A NONLINEAR PROBLEM          1.000E-02
     INITIAL VALUE OF TIME AVERAGE MOMENT                              1.000E-02
     AVERAGE MOMENT    IS TIME AVERAGE MOMENT   
     ALTERNATE CRIT. FOR RESIDUAL MOMENT    FOR A NONLINEAR PROBLEM    2.000E-02
     CRITERION FOR ZERO MOMENT    RELATIVE TO TIME AVRG. MOMENT        1.000E-05
     CRITERION FOR RESIDUAL MOMENT    WHEN THERE IS ZERO FLUX          1.000E-05
     CRITERION FOR ROTATION CORRECTION WHEN THERE IS ZERO FLUX         1.000E-03
     CRITERION FOR RESIDUAL MOMENT    FOR A LINEAR INCREMENT           1.000E-08
     FIELD CONVERSION RATIO                                             1.00    
     CRITERION FOR ZERO MOMENT    REL. TO TIME AVRG. MAX. MOMENT       1.000E-05

     VOLUMETRIC STRAIN COMPATIBILITY TOLERANCE FOR HYBRID SOLIDS       1.000E-05
     AXIAL STRAIN COMPATIBILITY TOLERANCE FOR HYBRID BEAMS             1.000E-05
     TRANS. SHEAR STRAIN COMPATIBILITY TOLERANCE FOR HYBRID BEAMS      1.000E-05
     SOFT CONTACT CONSTRAINT COMPATIBILITY TOLERANCE FOR P>P0          5.000E-03
     SOFT CONTACT CONSTRAINT COMPATIBILITY TOLERANCE FOR P=0.0         0.100    
     CONTACT FORCE ERROR TOLERANCE FOR CONVERT SDI=YES                 1.00    
     DISPLACEMENT COMPATIBILITY TOLERANCE FOR DCOUP ELEMENTS           1.000E-05
     ROTATION COMPATIBILITY TOLERANCE FOR DCOUP ELEMENTS               1.000E-05

 EQUILIBRIUM WILL BE CHECKED FOR SEVERE DISCONTINUITY ITERATIONS

 TIME INCREMENTATION CONTROL PARAMETERS:
     FIRST EQUILIBRIUM ITERATION FOR CONSECUTIVE DIVERGENCE CHECK              4
     EQUILIBRIUM ITERATION AT WHICH LOG. CONVERGENCE RATE CHECK BEGINS         8
     EQUILIBRIUM ITERATION AFTER WHICH ALTERNATE RESIDUAL IS USED              9
     MAXIMUM EQUILIBRIUM ITERATIONS ALLOWED                                   16
     EQUILIBRIUM ITERATION COUNT FOR CUT-BACK IN NEXT INCREMENT               10
     MAXIMUM EQUILIB. ITERS IN TWO INCREMENTS FOR TIME INCREMENT INCREASE      4
     MAXIMUM ITERATIONS FOR SEVERE DISCONTINUITIES                            50
     MAXIMUM ATTEMPTS ALLOWED IN AN INCREMENT                                  5
     MAXIMUM DISCON. ITERS IN TWO INCREMENTS FOR TIME INCREMENT INCREASE      50
     MAXIMUM CONTACT AUGMENTATIONS FOR *SURFACE BEHAVIOR,AUGMENTED LAGRANGE   50
     CUT-BACK FACTOR AFTER DIVERGENCE                                 0.2500    
     CUT-BACK FACTOR FOR TOO SLOW CONVERGENCE                         0.5000    
     CUT-BACK FACTOR AFTER TOO MANY EQUILIBRIUM ITERATIONS            0.7500    
     CUT-BACK FACTOR AFTER TOO MANY SEVERE DISCONTINUITY ITERATIONS   0.2500    
     CUT-BACK FACTOR AFTER PROBLEMS IN ELEMENT ASSEMBLY               0.2500    
     INCREASE FACTOR AFTER TWO INCREMENTS THAT CONVERGE QUICKLY        1.500    
     MAX. TIME INCREMENT INCREASE FACTOR ALLOWED                       1.500    
     MAX. TIME INCREMENT INCREASE FACTOR ALLOWED (DYNAMICS)            1.250    
     MAX. TIME INCREMENT INCREASE FACTOR ALLOWED (DIFFUSION)           2.000    
     MINIMUM TIME INCREMENT RATIO FOR EXTRAPOLATION TO OCCUR          0.1000    
     MAX. RATIO OF TIME INCREMENT TO STABILITY LIMIT                   1.000    
     FRACTION OF STABILITY LIMIT FOR NEW TIME INCREMENT               0.9500    
     TIME INCREMENT INCREASE FACTOR BEFORE A TIME POINT                1.000    
     GLOBAL STABILIZATION CONTROL IS NOT USED

          PRINT OF INCREMENT NUMBER, TIME, ETC., EVERY    1  INCREMENTS

     THE MAXIMUM NUMBER OF INCREMENTS IN THIS STEP IS                    1000

          LARGE DISPLACEMENT THEORY WILL BE USED

          UNSYMMETRIC MATRIX STORAGE AND SOLUTION WILL BE USED

     LINEAR EXTRAPOLATION WILL BE USED

     CHARACTERISTIC ELEMENT LENGTH     0.163    

     DETAILS REGARDING ACTUAL SOLUTION WAVEFRONT REQUESTED

     DETAILED OUTPUT OF DIAGNOSTICS TO DATABASE REQUESTED

     PRINT OF INCREMENT NUMBER, TIME, ETC., TO THE MESSAGE FILE EVERY     1  INCREMENTS

     COLLECTING MODEL CONSTRAINT INFORMATION FOR OVERCONSTRAINT CHECKS

     COLLECTING STEP CONSTRAINT INFORMATION FOR OVERCONSTRAINT CHECKS


  INCREMENT     1 STARTS. ATTEMPT NUMBER  1, TIME INCREMENT  1.000E-05

  NUMBER OF EQUATIONS =     80220     NUMBER OF FLOATING PT. OPERATIONS =  7.65E+09

     CHECK POINT   START OF SOLVER    

     CHECK POINT  END OF SOLVER       

       ELAPSED USER TIME (SEC)      =   1.2000    
       ELAPSED SYSTEM TIME (SEC)    =   0.0000    
       ELAPSED TOTAL CPU TIME (SEC) =   1.2000    
       ELAPSED WALLCLOCK TIME (SEC) =          1
 

 ***WARNING: SOLVER PROBLEM. NUMERICAL SINGULARITY WHEN PROCESSING NODE 
             COMPOSITEPLATE-1.4 D.O.F. 3 RATIO = 49.6497E+12 .
 

 ***WARNING: SOLVER PROBLEM. NUMERICAL SINGULARITY WHEN PROCESSING NODE 
             COMPOSITEPLATE-1.4 D.O.F. 4 RATIO = 1.51161E+12.
 

 ***WARNING: SOLVER PROBLEM. NUMERICAL SINGULARITY WHEN PROCESSING NODE 
             COMPOSITEPLATE-1.4 D.O.F. 5 RATIO = 5.32393E+12.

               CONVERGENCE CHECKS FOR EQUILIBRIUM ITERATION     1


 AVERAGE FORCE                      1.210E-04   TIME AVG. FORCE       1.210E-04
 LARGEST RESIDUAL FORCE            -3.131E-10   AT NODE       2846   DOF  1
   INSTANCE: COMPOSITEPLATE-1                                                                
 LARGEST INCREMENT OF DISP.         5.500E-07   AT NODE          9   DOF  1
   INSTANCE: COMPOSITEPLATE-1                                                                
 LARGEST CORRECTION TO DISP.        5.500E-07   AT NODE          9   DOF  1
   INSTANCE: COMPOSITEPLATE-1                                                                
          DISP.    CORRECTION TOO LARGE COMPARED TO DISP.    INCREMENT

 AVERAGE MOMENT                     1.217E-21   TIME AVG. MOMENT      1.000E-02
 LARGEST RESIDUAL MOMENT            3.402E-20   AT NODE       5316   DOF  5
   INSTANCE: COMPOSITEPLATE-1                                                                
 LARGEST INCREMENT OF ROTATION     -4.635E-24   AT NODE         16   DOF  5
   INSTANCE: COMPOSITEPLATE-1                                                                
 LARGEST CORRECTION TO ROTATION    -4.635E-24   AT NODE         16   DOF  5
   INSTANCE: COMPOSITEPLATE-1                                                                
          THERE IS ZERO MOMENT    EVERYWHERE
 

 ***WARNING: THERE IS ZERO MOMENT EVERYWHERE IN THE MODEL BASED ON THE DEFAULT 
             CRITERION. PLEASE CHECK THE VALUE OF THE AVERAGE MOMENT DURING THE 
             CURRENT ITERATION TO VERIFY THAT THE MOMENT IS SMALL ENOUGH TO BE 
             TREATED AS ZERO. IF NOT, PLEASE USE THE SOLUTION CONTROLS TO RESET 
             THE CRITERION FOR ZERO MOMENT.

  NUMBER OF EQUATIONS =     80220     NUMBER OF FLOATING PT. OPERATIONS =  7.65E+09

     CHECK POINT   START OF SOLVER    

     CHECK POINT  END OF SOLVER       

       ELAPSED USER TIME (SEC)      =   1.0000    
       ELAPSED SYSTEM TIME (SEC)    =   0.0000    
       ELAPSED TOTAL CPU TIME (SEC) =   1.0000    
       ELAPSED WALLCLOCK TIME (SEC) =          1
 

 ***WARNING: SOLVER PROBLEM. NUMERICAL SINGULARITY WHEN PROCESSING NODE 
             COMPOSITEPLATE-1.4 D.O.F. 3 RATIO = 41.1315E+12 .

               CONVERGENCE CHECKS FOR EQUILIBRIUM ITERATION     2


 AVERAGE FORCE                      1.210E-04   TIME AVG. FORCE       1.210E-04
 LARGEST RESIDUAL FORCE             4.218E-10   AT NODE      14566   DOF  2
   INSTANCE: COMPOSITEPLATE-1                                                                
 LARGEST INCREMENT OF DISP.         5.500E-07   AT NODE          9   DOF  1
   INSTANCE: COMPOSITEPLATE-1                                                                
 LARGEST CORRECTION TO DISP.        4.052E-14   AT NODE       8275   DOF  1
   INSTANCE: COMPOSITEPLATE-1                                                                
          THE FORCE     EQUILIBRIUM EQUATIONS HAVE CONVERGED

 AVERAGE MOMENT                     2.294E-21   TIME AVG. MOMENT      1.000E-02
 LARGEST RESIDUAL MOMENT           -5.030E-20   AT NODE       3996   DOF  5
   INSTANCE: COMPOSITEPLATE-1                                                                
 LARGEST INCREMENT OF ROTATION     -1.035E-23   AT NODE         15   DOF  5
   INSTANCE: COMPOSITEPLATE-1                                                                
 LARGEST CORRECTION TO ROTATION     8.603E-24   AT NODE        500   DOF  5
   INSTANCE: COMPOSITEPLATE-1                                                                
          THERE IS ZERO MOMENT    EVERYWHERE
 

 ***WARNING: THERE IS ZERO MOMENT EVERYWHERE IN THE MODEL BASED ON THE DEFAULT 
             CRITERION. PLEASE CHECK THE VALUE OF THE AVERAGE MOMENT DURING THE 
             CURRENT ITERATION TO VERIFY THAT THE MOMENT IS SMALL ENOUGH TO BE 
             TREATED AS ZERO. IF NOT, PLEASE USE THE SOLUTION CONTROLS TO RESET 
             THE CRITERION FOR ZERO MOMENT.

 ITERATION SUMMARY FOR THE INCREMENT:   2 TOTAL ITERATIONS, OF WHICH
   0 ARE SEVERE DISCONTINUITY ITERATIONS AND  2 ARE EQUILIBRIUM ITERATIONS.

 TIME INCREMENT COMPLETED  1.000E-05,  FRACTION OF STEP COMPLETED  1.000E-05
 STEP TIME COMPLETED       1.000E-05,  TOTAL TIME COMPLETED        1.000E-05


  INCREMENT     2 STARTS. ATTEMPT NUMBER  1, TIME INCREMENT  1.000E-05

  NUMBER OF EQUATIONS =     80220     NUMBER OF FLOATING PT. OPERATIONS =  7.65E+09

     CHECK POINT   START OF SOLVER    

     CHECK POINT  END OF SOLVER       

       ELAPSED USER TIME (SEC)      =   1.1000    
       ELAPSED SYSTEM TIME (SEC)    =   0.0000    
       ELAPSED TOTAL CPU TIME (SEC) =   1.1000    
       ELAPSED WALLCLOCK TIME (SEC) =          1
 

 ***WARNING: SOLVER PROBLEM. NUMERICAL SINGULARITY WHEN PROCESSING NODE 
             COMPOSITEPLATE-1.4 D.O.F. 3 RATIO = 21.4154E+12 .

               CONVERGENCE CHECKS FOR EQUILIBRIUM ITERATION     1


 AVERAGE FORCE                      3.654E-04   TIME AVG. FORCE       2.432E-04
 LARGEST RESIDUAL FORCE             4.091E-10   AT NODE        375   DOF  2
   INSTANCE: COMPOSITEPLATE-1                                                                
 LARGEST INCREMENT OF DISP.         5.500E-07   AT NODE          9   DOF  1
   INSTANCE: COMPOSITEPLATE-1                                                                
 LARGEST CORRECTION TO DISP.       -8.068E-14   AT NODE       1040   DOF  1
   INSTANCE: COMPOSITEPLATE-1                                                                
          THE FORCE     EQUILIBRIUM EQUATIONS HAVE CONVERGED

 AVERAGE MOMENT                     5.764E-21   TIME AVG. MOMENT      1.000E-02
 LARGEST RESIDUAL MOMENT           -1.378E-19   AT NODE       7469   DOF  5
   INSTANCE: COMPOSITEPLATE-1                                                                
 LARGEST INCREMENT OF ROTATION     -1.431E-23   AT NODE         10   DOF  4
   INSTANCE: COMPOSITEPLATE-1                                                                
 LARGEST CORRECTION TO ROTATION    -1.654E-23   AT NODE         10   DOF  4
   INSTANCE: COMPOSITEPLATE-1                                                                
          THERE IS ZERO MOMENT    EVERYWHERE
 

 ***WARNING: THERE IS ZERO MOMENT EVERYWHERE IN THE MODEL BASED ON THE DEFAULT 
             CRITERION. PLEASE CHECK THE VALUE OF THE AVERAGE MOMENT DURING THE 
             CURRENT ITERATION TO VERIFY THAT THE MOMENT IS SMALL ENOUGH TO BE 
             TREATED AS ZERO. IF NOT, PLEASE USE THE SOLUTION CONTROLS TO RESET 
             THE CRITERION FOR ZERO MOMENT.
          TIME INCREMENT MAY NOW INCREASE TO    1.500E-05

 ITERATION SUMMARY FOR THE INCREMENT:   1 TOTAL ITERATIONS, OF WHICH
   0 ARE SEVERE DISCONTINUITY ITERATIONS AND  1 ARE EQUILIBRIUM ITERATIONS.

 TIME INCREMENT COMPLETED  1.000E-05,  FRACTION OF STEP COMPLETED  2.000E-05
 STEP TIME COMPLETED       2.000E-05,  TOTAL TIME COMPLETED        2.000E-05


  INCREMENT     3 STARTS. ATTEMPT NUMBER  1, TIME INCREMENT  1.500E-05

  NUMBER OF EQUATIONS =     80220     NUMBER OF FLOATING PT. OPERATIONS =  7.65E+09

     CHECK POINT   START OF SOLVER    

     CHECK POINT  END OF SOLVER       

       ELAPSED USER TIME (SEC)      =   1.1000    
       ELAPSED SYSTEM TIME (SEC)    =  0.10000    
       ELAPSED TOTAL CPU TIME (SEC) =   1.2000    
       ELAPSED WALLCLOCK TIME (SEC) =          1
 

 ***WARNING: SOLVER PROBLEM. NUMERICAL SINGULARITY WHEN PROCESSING NODE 
             COMPOSITEPLATE-1.4 D.O.F. 3 RATIO = 227.209E+12  .

               CONVERGENCE CHECKS FOR EQUILIBRIUM ITERATION     1


 AVERAGE FORCE                      6.395E-04   TIME AVG. FORCE       3.753E-04
 LARGEST RESIDUAL FORCE            -3.386E-10   AT NODE       2418   DOF  2
   INSTANCE: COMPOSITEPLATE-1                                                                
 LARGEST INCREMENT OF DISP.         8.250E-07   AT NODE          9   DOF  1
   INSTANCE: COMPOSITEPLATE-1                                                                
 LARGEST CORRECTION TO DISP.        1.511E-13   AT NODE       8311   DOF  1
   INSTANCE: COMPOSITEPLATE-1                                                                
          THE FORCE     EQUILIBRIUM EQUATIONS HAVE CONVERGED

 AVERAGE MOMENT                     1.154E-20   TIME AVG. MOMENT      1.000E-02
 LARGEST RESIDUAL MOMENT            2.140E-19   AT NODE      15804   DOF  5
   INSTANCE: COMPOSITEPLATE-1                                                                
 LARGEST INCREMENT OF ROTATION     -4.170E-23   AT NODE        407   DOF  5
   INSTANCE: COMPOSITEPLATE-1                                                                
 LARGEST CORRECTION TO ROTATION    -4.729E-23   AT NODE       9006   DOF  5
   INSTANCE: COMPOSITEPLATE-1                                                                
          THERE IS ZERO MOMENT    EVERYWHERE
 

 ***WARNING: THERE IS ZERO MOMENT EVERYWHERE IN THE MODEL BASED ON THE DEFAULT 
             CRITERION. PLEASE CHECK THE VALUE OF THE AVERAGE MOMENT DURING THE 
             CURRENT ITERATION TO VERIFY THAT THE MOMENT IS SMALL ENOUGH TO BE 
             TREATED AS ZERO. IF NOT, PLEASE USE THE SOLUTION CONTROLS TO RESET 
             THE CRITERION FOR ZERO MOMENT.
          TIME INCREMENT MAY NOW INCREASE TO    2.250E-05

 ITERATION SUMMARY FOR THE INCREMENT:   1 TOTAL ITERATIONS, OF WHICH
   0 ARE SEVERE DISCONTINUITY ITERATIONS AND  1 ARE EQUILIBRIUM ITERATIONS.

 TIME INCREMENT COMPLETED  1.500E-05,  FRACTION OF STEP COMPLETED  3.500E-05
 STEP TIME COMPLETED       3.500E-05,  TOTAL TIME COMPLETED        3.500E-05


  INCREMENT     4 STARTS. ATTEMPT NUMBER  1, TIME INCREMENT  2.250E-05

  NUMBER OF EQUATIONS =     80220     NUMBER OF FLOATING PT. OPERATIONS =  7.65E+09

     CHECK POINT   START OF SOLVER    

     CHECK POINT  END OF SOLVER       

       ELAPSED USER TIME (SEC)      =   1.0000    
       ELAPSED SYSTEM TIME (SEC)    =   0.0000    
       ELAPSED TOTAL CPU TIME (SEC) =   1.0000    
       ELAPSED WALLCLOCK TIME (SEC) =          1
 

 ***WARNING: SOLVER PROBLEM. NUMERICAL SINGULARITY WHEN PROCESSING NODE 
             COMPOSITEPLATE-1.4 D.O.F. 3 RATIO = 28.6508E+12 .

               CONVERGENCE CHECKS FOR EQUILIBRIUM ITERATION     1


 AVERAGE FORCE                      1.051E-03   TIME AVG. FORCE       5.441E-04
 LARGEST RESIDUAL FORCE             4.448E-10   AT NODE       8955   DOF  2
   INSTANCE: COMPOSITEPLATE-1                                                                
 LARGEST INCREMENT OF DISP.         1.238E-06   AT NODE          9   DOF  1
   INSTANCE: COMPOSITEPLATE-1                                                                
 LARGEST CORRECTION TO DISP.        3.404E-13   AT NODE       8275   DOF  1
   INSTANCE: COMPOSITEPLATE-1                                                                
          THE FORCE     EQUILIBRIUM EQUATIONS HAVE CONVERGED

 AVERAGE MOMENT                     1.952E-20   TIME AVG. MOMENT      1.000E-02
 LARGEST RESIDUAL MOMENT            2.977E-19   AT NODE       7629   DOF  5
   INSTANCE: COMPOSITEPLATE-1                                                                
 LARGEST INCREMENT OF ROTATION     -4.704E-23   AT NODE        360   DOF  5
   INSTANCE: COMPOSITEPLATE-1                                                                
 LARGEST CORRECTION TO ROTATION     9.434E-23   AT NODE        407   DOF  5
   INSTANCE: COMPOSITEPLATE-1                                                                
          THERE IS ZERO MOMENT    EVERYWHERE
 

 ***WARNING: THERE IS ZERO MOMENT EVERYWHERE IN THE MODEL BASED ON THE DEFAULT 
             CRITERION. PLEASE CHECK THE VALUE OF THE AVERAGE MOMENT DURING THE 
             CURRENT ITERATION TO VERIFY THAT THE MOMENT IS SMALL ENOUGH TO BE 
             TREATED AS ZERO. IF NOT, PLEASE USE THE SOLUTION CONTROLS TO RESET 
             THE CRITERION FOR ZERO MOMENT.
          TIME INCREMENT MAY NOW INCREASE TO    3.375E-05

 ITERATION SUMMARY FOR THE INCREMENT:   1 TOTAL ITERATIONS, OF WHICH
   0 ARE SEVERE DISCONTINUITY ITERATIONS AND  1 ARE EQUILIBRIUM ITERATIONS.

 TIME INCREMENT COMPLETED  2.250E-05,  FRACTION OF STEP COMPLETED  5.750E-05
 STEP TIME COMPLETED       5.750E-05,  TOTAL TIME COMPLETED        5.750E-05


  INCREMENT     5 STARTS. ATTEMPT NUMBER  1, TIME INCREMENT  3.375E-05

  NUMBER OF EQUATIONS =     80220     NUMBER OF FLOATING PT. OPERATIONS =  7.65E+09

     CHECK POINT   START OF SOLVER    

     CHECK POINT  END OF SOLVER       

       ELAPSED USER TIME (SEC)      =   1.1000    
       ELAPSED SYSTEM TIME (SEC)    =   0.0000    
       ELAPSED TOTAL CPU TIME (SEC) =   1.1000    
       ELAPSED WALLCLOCK TIME (SEC) =          1
 

 ***WARNING: SOLVER PROBLEM. NUMERICAL SINGULARITY WHEN PROCESSING NODE 
             COMPOSITEPLATE-1.4 D.O.F. 3 RATIO = 15.9549E+12 .

               CONVERGENCE CHECKS FOR EQUILIBRIUM ITERATION     1


 AVERAGE FORCE                      1.667E-03   TIME AVG. FORCE       7.687E-04
 LARGEST RESIDUAL FORCE             4.307E-10   AT NODE      15821   DOF  2
   INSTANCE: COMPOSITEPLATE-1                                                                
 LARGEST INCREMENT OF DISP.         1.856E-06   AT NODE          9   DOF  1
   INSTANCE: COMPOSITEPLATE-1                                                                
 LARGEST CORRECTION TO DISP.        7.635E-13   AT NODE       7065   DOF  1
   INSTANCE: COMPOSITEPLATE-1                                                                
          THE FORCE     EQUILIBRIUM EQUATIONS HAVE CONVERGED

 AVERAGE MOMENT                     3.133E-20   TIME AVG. MOMENT      1.000E-02
 LARGEST RESIDUAL MOMENT            6.776E-19   AT NODE       5323   DOF  5
   INSTANCE: COMPOSITEPLATE-1                                                                
 LARGEST INCREMENT OF ROTATION     -9.745E-23   AT NODE        501   DOF  5
   INSTANCE: COMPOSITEPLATE-1                                                                
 LARGEST CORRECTION TO ROTATION    -1.331E-22   AT NODE        506   DOF  5
   INSTANCE: COMPOSITEPLATE-1                                                                
          THERE IS ZERO MOMENT    EVERYWHERE
 

 ***WARNING: THERE IS ZERO MOMENT EVERYWHERE IN THE MODEL BASED ON THE DEFAULT 
             CRITERION. PLEASE CHECK THE VALUE OF THE AVERAGE MOMENT DURING THE 
             CURRENT ITERATION TO VERIFY THAT THE MOMENT IS SMALL ENOUGH TO BE 
             TREATED AS ZERO. IF NOT, PLEASE USE THE SOLUTION CONTROLS TO RESET 
             THE CRITERION FOR ZERO MOMENT.
          TIME INCREMENT MAY NOW INCREASE TO    5.063E-05

 ITERATION SUMMARY FOR THE INCREMENT:   1 TOTAL ITERATIONS, OF WHICH
   0 ARE SEVERE DISCONTINUITY ITERATIONS AND  1 ARE EQUILIBRIUM ITERATIONS.

 TIME INCREMENT COMPLETED  3.375E-05,  FRACTION OF STEP COMPLETED  9.125E-05
 STEP TIME COMPLETED       9.125E-05,  TOTAL TIME COMPLETED        9.125E-05


  INCREMENT     6 STARTS. ATTEMPT NUMBER  1, TIME INCREMENT  5.063E-05

  NUMBER OF EQUATIONS =     80220     NUMBER OF FLOATING PT. OPERATIONS =  7.65E+09

     CHECK POINT   START OF SOLVER    

     CHECK POINT  END OF SOLVER       

       ELAPSED USER TIME (SEC)      =   1.0000    
       ELAPSED SYSTEM TIME (SEC)    =   0.0000    
       ELAPSED TOTAL CPU TIME (SEC) =   1.0000    
       ELAPSED WALLCLOCK TIME (SEC) =          1
 

 ***WARNING: SOLVER PROBLEM. NUMERICAL SINGULARITY WHEN PROCESSING NODE 
             COMPOSITEPLATE-1.4 D.O.F. 3 RATIO = 25.9006E+12 .

               CONVERGENCE CHECKS FOR EQUILIBRIUM ITERATION     1


 AVERAGE FORCE                      2.592E-03   TIME AVG. FORCE       1.073E-03
 LARGEST RESIDUAL FORCE            -4.846E-10   AT NODE      14181   DOF  1
   INSTANCE: COMPOSITEPLATE-1                                                                
 LARGEST INCREMENT OF DISP.         2.784E-06   AT NODE          9   DOF  1
   INSTANCE: COMPOSITEPLATE-1                                                                
 LARGEST CORRECTION TO DISP.       -1.719E-12   AT NODE       5887   DOF  1
   INSTANCE: COMPOSITEPLATE-1                                                                
          THE FORCE     EQUILIBRIUM EQUATIONS HAVE CONVERGED

 AVERAGE MOMENT                     4.918E-20   TIME AVG. MOMENT      1.000E-02
 LARGEST RESIDUAL MOMENT           -8.671E-19   AT NODE      10272   DOF  5
   INSTANCE: COMPOSITEPLATE-1                                                                
 LARGEST INCREMENT OF ROTATION      1.600E-22   AT NODE      14376   DOF  5
   INSTANCE: COMPOSITEPLATE-1                                                                
 LARGEST CORRECTION TO ROTATION     2.930E-22   AT NODE        501   DOF  5
   INSTANCE: COMPOSITEPLATE-1                                                                
          THERE IS ZERO MOMENT    EVERYWHERE
 

 ***WARNING: THERE IS ZERO MOMENT EVERYWHERE IN THE MODEL BASED ON THE DEFAULT 
             CRITERION. PLEASE CHECK THE VALUE OF THE AVERAGE MOMENT DURING THE 
             CURRENT ITERATION TO VERIFY THAT THE MOMENT IS SMALL ENOUGH TO BE 
             TREATED AS ZERO. IF NOT, PLEASE USE THE SOLUTION CONTROLS TO RESET 
             THE CRITERION FOR ZERO MOMENT.
          TIME INCREMENT MAY NOW INCREASE TO    7.594E-05

 ITERATION SUMMARY FOR THE INCREMENT:   1 TOTAL ITERATIONS, OF WHICH
   0 ARE SEVERE DISCONTINUITY ITERATIONS AND  1 ARE EQUILIBRIUM ITERATIONS.

 TIME INCREMENT COMPLETED  5.063E-05,  FRACTION OF STEP COMPLETED  1.419E-04
 STEP TIME COMPLETED       1.419E-04,  TOTAL TIME COMPLETED        1.419E-04


  INCREMENT     7 STARTS. ATTEMPT NUMBER  1, TIME INCREMENT  7.594E-05

  NUMBER OF EQUATIONS =     80220     NUMBER OF FLOATING PT. OPERATIONS =  7.65E+09

     CHECK POINT   START OF SOLVER    

     CHECK POINT  END OF SOLVER       

       ELAPSED USER TIME (SEC)      =   1.0000    
       ELAPSED SYSTEM TIME (SEC)    =   0.0000    
       ELAPSED TOTAL CPU TIME (SEC) =   1.0000    
       ELAPSED WALLCLOCK TIME (SEC) =          1
 

 ***WARNING: SOLVER PROBLEM. NUMERICAL SINGULARITY WHEN PROCESSING NODE 
             COMPOSITEPLATE-1.4 D.O.F. 3 RATIO = 20.9860E+12 .

               CONVERGENCE CHECKS FOR EQUILIBRIUM ITERATION     1


 AVERAGE FORCE                      3.979E-03   TIME AVG. FORCE       1.488E-03
 LARGEST RESIDUAL FORCE             4.152E-10   AT NODE       9182   DOF  1
   INSTANCE: COMPOSITEPLATE-1                                                                
 LARGEST INCREMENT OF DISP.         4.177E-06   AT NODE          9   DOF  1
   INSTANCE: COMPOSITEPLATE-1                                                                
 LARGEST CORRECTION TO DISP.       -3.868E-12   AT NODE       5887   DOF  1
   INSTANCE: COMPOSITEPLATE-1                                                                
          THE FORCE     EQUILIBRIUM EQUATIONS HAVE CONVERGED

 AVERAGE MOMENT                     7.537E-20   TIME AVG. MOMENT      1.000E-02
 LARGEST RESIDUAL MOMENT           -1.367E-18   AT NODE      14379   DOF  5
   INSTANCE: COMPOSITEPLATE-1                                                                
 LARGEST INCREMENT OF ROTATION      2.142E-22   AT NODE       3004   DOF  5
   INSTANCE: COMPOSITEPLATE-1                                                                
 LARGEST CORRECTION TO ROTATION     3.235E-22   AT NODE      12274   DOF  5
   INSTANCE: COMPOSITEPLATE-1                                                                
          THERE IS ZERO MOMENT    EVERYWHERE
 

 ***WARNING: THERE IS ZERO MOMENT EVERYWHERE IN THE MODEL BASED ON THE DEFAULT 
             CRITERION. PLEASE CHECK THE VALUE OF THE AVERAGE MOMENT DURING THE 
             CURRENT ITERATION TO VERIFY THAT THE MOMENT IS SMALL ENOUGH TO BE 
             TREATED AS ZERO. IF NOT, PLEASE USE THE SOLUTION CONTROLS TO RESET 
             THE CRITERION FOR ZERO MOMENT.
          TIME INCREMENT MAY NOW INCREASE TO    1.139E-04

 ITERATION SUMMARY FOR THE INCREMENT:   1 TOTAL ITERATIONS, OF WHICH
   0 ARE SEVERE DISCONTINUITY ITERATIONS AND  1 ARE EQUILIBRIUM ITERATIONS.

 TIME INCREMENT COMPLETED  7.594E-05,  FRACTION OF STEP COMPLETED  2.178E-04
 STEP TIME COMPLETED       2.178E-04,  TOTAL TIME COMPLETED        2.178E-04


  INCREMENT     8 STARTS. ATTEMPT NUMBER  1, TIME INCREMENT  1.139E-04

  NUMBER OF EQUATIONS =     80220     NUMBER OF FLOATING PT. OPERATIONS =  7.65E+09

     CHECK POINT   START OF SOLVER    

     CHECK POINT  END OF SOLVER       

       ELAPSED USER TIME (SEC)      =   1.1000    
       ELAPSED SYSTEM TIME (SEC)    =  0.10000    
       ELAPSED TOTAL CPU TIME (SEC) =   1.2000    
       ELAPSED WALLCLOCK TIME (SEC) =          1
 

 ***WARNING: SOLVER PROBLEM. NUMERICAL SINGULARITY WHEN PROCESSING NODE 
             COMPOSITEPLATE-1.4 D.O.F. 3 RATIO = 38.0032E+12 .

               CONVERGENCE CHECKS FOR EQUILIBRIUM ITERATION     1


 AVERAGE FORCE                      6.060E-03   TIME AVG. FORCE       2.059E-03
 LARGEST RESIDUAL FORCE             3.593E-10   AT NODE      14974   DOF  1
   INSTANCE: COMPOSITEPLATE-1                                                                
 LARGEST INCREMENT OF DISP.         6.265E-06   AT NODE          9   DOF  1
   INSTANCE: COMPOSITEPLATE-1                                                                
 LARGEST CORRECTION TO DISP.       -8.700E-12   AT NODE       4656   DOF  1
   INSTANCE: COMPOSITEPLATE-1                                                                
          THE FORCE     EQUILIBRIUM EQUATIONS HAVE CONVERGED

 AVERAGE MOMENT                     1.142E-19   TIME AVG. MOMENT      1.000E-02
 LARGEST RESIDUAL MOMENT            2.206E-18   AT NODE       5408   DOF  4
   INSTANCE: COMPOSITEPLATE-1                                                                
 LARGEST INCREMENT OF ROTATION      4.172E-22   AT NODE        462   DOF  5
   INSTANCE: COMPOSITEPLATE-1                                                                
 LARGEST CORRECTION TO ROTATION    -5.084E-22   AT NODE         16   DOF  4
   INSTANCE: COMPOSITEPLATE-1                                                                
          THERE IS ZERO MOMENT    EVERYWHERE
 

 ***WARNING: THERE IS ZERO MOMENT EVERYWHERE IN THE MODEL BASED ON THE DEFAULT 
             CRITERION. PLEASE CHECK THE VALUE OF THE AVERAGE MOMENT DURING THE 
             CURRENT ITERATION TO VERIFY THAT THE MOMENT IS SMALL ENOUGH TO BE 
             TREATED AS ZERO. IF NOT, PLEASE USE THE SOLUTION CONTROLS TO RESET 
             THE CRITERION FOR ZERO MOMENT.
          TIME INCREMENT MAY NOW INCREASE TO    1.709E-04

 ITERATION SUMMARY FOR THE INCREMENT:   1 TOTAL ITERATIONS, OF WHICH
   0 ARE SEVERE DISCONTINUITY ITERATIONS AND  1 ARE EQUILIBRIUM ITERATIONS.

 TIME INCREMENT COMPLETED  1.139E-04,  FRACTION OF STEP COMPLETED  3.317E-04
 STEP TIME COMPLETED       3.317E-04,  TOTAL TIME COMPLETED        3.317E-04


  INCREMENT     9 STARTS. ATTEMPT NUMBER  1, TIME INCREMENT  1.709E-04

  NUMBER OF EQUATIONS =     80220     NUMBER OF FLOATING PT. OPERATIONS =  7.65E+09

     CHECK POINT   START OF SOLVER    

     CHECK POINT  END OF SOLVER       

       ELAPSED USER TIME (SEC)      =   1.1000    
       ELAPSED SYSTEM TIME (SEC)    =   0.0000    
       ELAPSED TOTAL CPU TIME (SEC) =   1.1000    
       ELAPSED WALLCLOCK TIME (SEC) =          1
 

 ***WARNING: SOLVER PROBLEM. NUMERICAL SINGULARITY WHEN PROCESSING NODE 
             COMPOSITEPLATE-1.4 D.O.F. 3 RATIO = 24.5238E+12 .

               CONVERGENCE CHECKS FOR EQUILIBRIUM ITERATION     1


 AVERAGE FORCE                      9.181E-03   TIME AVG. FORCE       2.851E-03
 LARGEST RESIDUAL FORCE             4.344E-10   AT NODE       9359   DOF  2
   INSTANCE: COMPOSITEPLATE-1                                                                
 LARGEST INCREMENT OF DISP.         9.397E-06   AT NODE          9   DOF  1
   INSTANCE: COMPOSITEPLATE-1                                                                
 LARGEST CORRECTION TO DISP.        1.958E-11   AT NODE       7065   DOF  1
   INSTANCE: COMPOSITEPLATE-1                                                                
          THE FORCE     EQUILIBRIUM EQUATIONS HAVE CONVERGED

 AVERAGE MOMENT                     1.755E-19   TIME AVG. MOMENT      1.000E-02
 LARGEST RESIDUAL MOMENT            3.780E-18   AT NODE       7597   DOF  5
   INSTANCE: COMPOSITEPLATE-1                                                                
 LARGEST INCREMENT OF ROTATION     -5.207E-22   AT NODE      15701   DOF  5
   INSTANCE: COMPOSITEPLATE-1                                                                
 LARGEST CORRECTION TO ROTATION    -1.077E-21   AT NODE        462   DOF  5
   INSTANCE: COMPOSITEPLATE-1                                                                
          THERE IS ZERO MOMENT    EVERYWHERE
 

 ***WARNING: THERE IS ZERO MOMENT EVERYWHERE IN THE MODEL BASED ON THE DEFAULT 
             CRITERION. PLEASE CHECK THE VALUE OF THE AVERAGE MOMENT DURING THE 
             CURRENT ITERATION TO VERIFY THAT THE MOMENT IS SMALL ENOUGH TO BE 
             TREATED AS ZERO. IF NOT, PLEASE USE THE SOLUTION CONTROLS TO RESET 
             THE CRITERION FOR ZERO MOMENT.
          TIME INCREMENT MAY NOW INCREASE TO    2.563E-04

 ITERATION SUMMARY FOR THE INCREMENT:   1 TOTAL ITERATIONS, OF WHICH
   0 ARE SEVERE DISCONTINUITY ITERATIONS AND  1 ARE EQUILIBRIUM ITERATIONS.

 TIME INCREMENT COMPLETED  1.709E-04,  FRACTION OF STEP COMPLETED  5.026E-04
 STEP TIME COMPLETED       5.026E-04,  TOTAL TIME COMPLETED        5.026E-04


  INCREMENT    10 STARTS. ATTEMPT NUMBER  1, TIME INCREMENT  2.563E-04

  NUMBER OF EQUATIONS =     80220     NUMBER OF FLOATING PT. OPERATIONS =  7.65E+09

     CHECK POINT   START OF SOLVER    

     CHECK POINT  END OF SOLVER       

       ELAPSED USER TIME (SEC)      =   1.0000    
       ELAPSED SYSTEM TIME (SEC)    =   0.0000    
       ELAPSED TOTAL CPU TIME (SEC) =   1.0000    
       ELAPSED WALLCLOCK TIME (SEC) =          1
 

 ***WARNING: SOLVER PROBLEM. NUMERICAL SINGULARITY WHEN PROCESSING NODE 
             COMPOSITEPLATE-1.4 D.O.F. 3 RATIO = 10.2051E+12 .

               CONVERGENCE CHECKS FOR EQUILIBRIUM ITERATION     1


 AVERAGE FORCE                      1.386E-02   TIME AVG. FORCE       3.952E-03
 LARGEST RESIDUAL FORCE            -3.956E-10   AT NODE       8838   DOF  2
   INSTANCE: COMPOSITEPLATE-1                                                                
 LARGEST INCREMENT OF DISP.         1.410E-05   AT NODE          9   DOF  1
   INSTANCE: COMPOSITEPLATE-1                                                                
 LARGEST CORRECTION TO DISP.        4.405E-11   AT NODE       8275   DOF  1
   INSTANCE: COMPOSITEPLATE-1                                                                
          THE FORCE     EQUILIBRIUM EQUATIONS HAVE CONVERGED

 AVERAGE MOMENT                     2.643E-19   TIME AVG. MOMENT      1.000E-02
 LARGEST RESIDUAL MOMENT            5.065E-18   AT NODE       5518   DOF  5
   INSTANCE: COMPOSITEPLATE-1                                                                
 LARGEST INCREMENT OF ROTATION     -1.038E-21   AT NODE        407   DOF  5
   INSTANCE: COMPOSITEPLATE-1                                                                
 LARGEST CORRECTION TO ROTATION    -1.609E-21   AT NODE        407   DOF  5
   INSTANCE: COMPOSITEPLATE-1                                                                
          THERE IS ZERO MOMENT    EVERYWHERE
 

 ***WARNING: THERE IS ZERO MOMENT EVERYWHERE IN THE MODEL BASED ON THE DEFAULT 
             CRITERION. PLEASE CHECK THE VALUE OF THE AVERAGE MOMENT DURING THE 
             CURRENT ITERATION TO VERIFY THAT THE MOMENT IS SMALL ENOUGH TO BE 
             TREATED AS ZERO. IF NOT, PLEASE USE THE SOLUTION CONTROLS TO RESET 
             THE CRITERION FOR ZERO MOMENT.
          TIME INCREMENT MAY NOW INCREASE TO    3.844E-04

 ITERATION SUMMARY FOR THE INCREMENT:   1 TOTAL ITERATIONS, OF WHICH
   0 ARE SEVERE DISCONTINUITY ITERATIONS AND  1 ARE EQUILIBRIUM ITERATIONS.

 TIME INCREMENT COMPLETED  2.563E-04,  FRACTION OF STEP COMPLETED  7.589E-04
 STEP TIME COMPLETED       7.589E-04,  TOTAL TIME COMPLETED        7.589E-04


  INCREMENT    11 STARTS. ATTEMPT NUMBER  1, TIME INCREMENT  3.844E-04

  NUMBER OF EQUATIONS =     80220     NUMBER OF FLOATING PT. OPERATIONS =  7.65E+09

     CHECK POINT   START OF SOLVER    

     CHECK POINT  END OF SOLVER       

       ELAPSED USER TIME (SEC)      =   1.0000    
       ELAPSED SYSTEM TIME (SEC)    =   0.0000    
       ELAPSED TOTAL CPU TIME (SEC) =   1.0000    
       ELAPSED WALLCLOCK TIME (SEC) =          1
 

 ***WARNING: SOLVER PROBLEM. NUMERICAL SINGULARITY WHEN PROCESSING NODE 
             COMPOSITEPLATE-1.4 D.O.F. 3 RATIO = 12.0869E+12 .

               CONVERGENCE CHECKS FOR EQUILIBRIUM ITERATION     1


 AVERAGE FORCE                      2.088E-02   TIME AVG. FORCE       5.491E-03
 LARGEST RESIDUAL FORCE            -3.801E-10   AT NODE       9917   DOF  2
   INSTANCE: COMPOSITEPLATE-1                                                                
 LARGEST INCREMENT OF DISP.         2.114E-05   AT NODE          9   DOF  1
   INSTANCE: COMPOSITEPLATE-1                                                                
 LARGEST CORRECTION TO DISP.       -9.910E-11   AT NODE       4656   DOF  1
   INSTANCE: COMPOSITEPLATE-1                                                                
          THE FORCE     EQUILIBRIUM EQUATIONS HAVE CONVERGED

 AVERAGE MOMENT                     4.027E-19   TIME AVG. MOMENT      1.000E-02
 LARGEST RESIDUAL MOMENT            8.660E-18   AT NODE       7318   DOF  5
   INSTANCE: COMPOSITEPLATE-1                                                                
 LARGEST INCREMENT OF ROTATION      1.570E-21   AT NODE         13   DOF  5
   INSTANCE: COMPOSITEPLATE-1                                                                
 LARGEST CORRECTION TO ROTATION     2.234E-21   AT NODE        407   DOF  5
   INSTANCE: COMPOSITEPLATE-1                                                                
          THERE IS ZERO MOMENT    EVERYWHERE
 

 ***WARNING: THERE IS ZERO MOMENT EVERYWHERE IN THE MODEL BASED ON THE DEFAULT 
             CRITERION. PLEASE CHECK THE VALUE OF THE AVERAGE MOMENT DURING THE 
             CURRENT ITERATION TO VERIFY THAT THE MOMENT IS SMALL ENOUGH TO BE 
             TREATED AS ZERO. IF NOT, PLEASE USE THE SOLUTION CONTROLS TO RESET 
             THE CRITERION FOR ZERO MOMENT.
          TIME INCREMENT MAY NOW INCREASE TO    5.767E-04

 ITERATION SUMMARY FOR THE INCREMENT:   1 TOTAL ITERATIONS, OF WHICH
   0 ARE SEVERE DISCONTINUITY ITERATIONS AND  1 ARE EQUILIBRIUM ITERATIONS.

 TIME INCREMENT COMPLETED  3.844E-04,  FRACTION OF STEP COMPLETED  1.143E-03
 STEP TIME COMPLETED       1.143E-03,  TOTAL TIME COMPLETED        1.143E-03


  INCREMENT    12 STARTS. ATTEMPT NUMBER  1, TIME INCREMENT  5.767E-04

  NUMBER OF EQUATIONS =     80220     NUMBER OF FLOATING PT. OPERATIONS =  7.65E+09

     CHECK POINT   START OF SOLVER    

     CHECK POINT  END OF SOLVER       

       ELAPSED USER TIME (SEC)      =   1.0000    
       ELAPSED SYSTEM TIME (SEC)    =   0.0000    
       ELAPSED TOTAL CPU TIME (SEC) =   1.0000    
       ELAPSED WALLCLOCK TIME (SEC) =          1
 

 ***WARNING: SOLVER PROBLEM. NUMERICAL SINGULARITY WHEN PROCESSING NODE 
             COMPOSITEPLATE-1.4 D.O.F. 3 RATIO = 48.7571E+12 .

               CONVERGENCE CHECKS FOR EQUILIBRIUM ITERATION     1


 AVERAGE FORCE                      3.142E-02   TIME AVG. FORCE       7.652E-03
 LARGEST RESIDUAL FORCE            -4.135E-10   AT NODE       3710   DOF  1
   INSTANCE: COMPOSITEPLATE-1                                                                
 LARGEST INCREMENT OF DISP.         3.172E-05   AT NODE          9   DOF  1
   INSTANCE: COMPOSITEPLATE-1                                                                
 LARGEST CORRECTION TO DISP.       -2.230E-10   AT NODE       5887   DOF  1
   INSTANCE: COMPOSITEPLATE-1                                                                
          THE FORCE     EQUILIBRIUM EQUATIONS HAVE CONVERGED

 AVERAGE MOMENT                     5.941E-19   TIME AVG. MOMENT      1.000E-02
 LARGEST RESIDUAL MOMENT           -1.120E-17   AT NODE      15218   DOF  4
   INSTANCE: COMPOSITEPLATE-1                                                                
 LARGEST INCREMENT OF ROTATION     -1.637E-21   AT NODE        506   DOF  5
   INSTANCE: COMPOSITEPLATE-1                                                                
 LARGEST CORRECTION TO ROTATION    -3.622E-21   AT NODE         13   DOF  5
   INSTANCE: COMPOSITEPLATE-1                                                                
          THERE IS ZERO MOMENT    EVERYWHERE
 

 ***WARNING: THERE IS ZERO MOMENT EVERYWHERE IN THE MODEL BASED ON THE DEFAULT 
             CRITERION. PLEASE CHECK THE VALUE OF THE AVERAGE MOMENT DURING THE 
             CURRENT ITERATION TO VERIFY THAT THE MOMENT IS SMALL ENOUGH TO BE 
             TREATED AS ZERO. IF NOT, PLEASE USE THE SOLUTION CONTROLS TO RESET 
             THE CRITERION FOR ZERO MOMENT.
          TIME INCREMENT MAY NOW INCREASE TO    8.650E-04

 ITERATION SUMMARY FOR THE INCREMENT:   1 TOTAL ITERATIONS, OF WHICH
   0 ARE SEVERE DISCONTINUITY ITERATIONS AND  1 ARE EQUILIBRIUM ITERATIONS.

 TIME INCREMENT COMPLETED  5.767E-04,  FRACTION OF STEP COMPLETED  1.720E-03
 STEP TIME COMPLETED       1.720E-03,  TOTAL TIME COMPLETED        1.720E-03


  INCREMENT    13 STARTS. ATTEMPT NUMBER  1, TIME INCREMENT  8.650E-04

  NUMBER OF EQUATIONS =     80220     NUMBER OF FLOATING PT. OPERATIONS =  7.65E+09

     CHECK POINT   START OF SOLVER    

     CHECK POINT  END OF SOLVER       

       ELAPSED USER TIME (SEC)      =  0.90000    
       ELAPSED SYSTEM TIME (SEC)    =  0.10000    
       ELAPSED TOTAL CPU TIME (SEC) =   1.0000    
       ELAPSED WALLCLOCK TIME (SEC) =          1
 

 ***WARNING: SOLVER PROBLEM. NUMERICAL SINGULARITY WHEN PROCESSING NODE 
             COMPOSITEPLATE-1.4 D.O.F. 3 RATIO = 48.0908E+12 .

               CONVERGENCE CHECKS FOR EQUILIBRIUM ITERATION     1


 AVERAGE FORCE                      4.722E-02   TIME AVG. FORCE       1.070E-02
 LARGEST RESIDUAL FORCE             5.786E-10   AT NODE       9013   DOF  2
   INSTANCE: COMPOSITEPLATE-1                                                                
 LARGEST INCREMENT OF DISP.         4.757E-05   AT NODE          9   DOF  1
   INSTANCE: COMPOSITEPLATE-1                                                                
 LARGEST CORRECTION TO DISP.        5.016E-10   AT NODE       8275   DOF  1
   INSTANCE: COMPOSITEPLATE-1                                                                
          THE FORCE     EQUILIBRIUM EQUATIONS HAVE CONVERGED

 AVERAGE MOMENT                     8.951E-19   TIME AVG. MOMENT      1.000E-02
 LARGEST RESIDUAL MOMENT            2.149E-17   AT NODE       5482   DOF  5
   INSTANCE: COMPOSITEPLATE-1                                                                
 LARGEST INCREMENT OF ROTATION     -2.959E-21   AT NODE        345   DOF  5
   INSTANCE: COMPOSITEPLATE-1                                                                
 LARGEST CORRECTION TO ROTATION     4.671E-21   AT NODE       3549   DOF  5
   INSTANCE: COMPOSITEPLATE-1                                                                
          THERE IS ZERO MOMENT    EVERYWHERE
 

 ***WARNING: THERE IS ZERO MOMENT EVERYWHERE IN THE MODEL BASED ON THE DEFAULT 
             CRITERION. PLEASE CHECK THE VALUE OF THE AVERAGE MOMENT DURING THE 
             CURRENT ITERATION TO VERIFY THAT THE MOMENT IS SMALL ENOUGH TO BE 
             TREATED AS ZERO. IF NOT, PLEASE USE THE SOLUTION CONTROLS TO RESET 
             THE CRITERION FOR ZERO MOMENT.
          TIME INCREMENT MAY NOW INCREASE TO    1.297E-03

 ITERATION SUMMARY FOR THE INCREMENT:   1 TOTAL ITERATIONS, OF WHICH
   0 ARE SEVERE DISCONTINUITY ITERATIONS AND  1 ARE EQUILIBRIUM ITERATIONS.

 TIME INCREMENT COMPLETED  8.650E-04,  FRACTION OF STEP COMPLETED  2.585E-03
 STEP TIME COMPLETED       2.585E-03,  TOTAL TIME COMPLETED        2.585E-03


  INCREMENT    14 STARTS. ATTEMPT NUMBER  1, TIME INCREMENT  1.297E-03

  NUMBER OF EQUATIONS =     80220     NUMBER OF FLOATING PT. OPERATIONS =  7.65E+09

     CHECK POINT   START OF SOLVER    

     CHECK POINT  END OF SOLVER       

       ELAPSED USER TIME (SEC)      =   1.0000    
       ELAPSED SYSTEM TIME (SEC)    =   0.0000    
       ELAPSED TOTAL CPU TIME (SEC) =   1.0000    
       ELAPSED WALLCLOCK TIME (SEC) =          1
 

 ***WARNING: SOLVER PROBLEM. NUMERICAL SINGULARITY WHEN PROCESSING NODE 
             COMPOSITEPLATE-1.4 D.O.F. 3 RATIO = 46.1403E+12 .

               CONVERGENCE CHECKS FOR EQUILIBRIUM ITERATION     1


 AVERAGE FORCE                      7.092E-02   TIME AVG. FORCE       1.500E-02
 LARGEST RESIDUAL FORCE             3.504E-10   AT NODE       8838   DOF  2
   INSTANCE: COMPOSITEPLATE-1                                                                
 LARGEST INCREMENT OF DISP.         7.136E-05   AT NODE          9   DOF  1
   INSTANCE: COMPOSITEPLATE-1                                                                
 LARGEST CORRECTION TO DISP.        1.129E-09   AT NODE       7065   DOF  1
   INSTANCE: COMPOSITEPLATE-1                                                                
          THE FORCE     EQUILIBRIUM EQUATIONS HAVE CONVERGED

 AVERAGE MOMENT                     1.349E-18   TIME AVG. MOMENT      1.000E-02
 LARGEST RESIDUAL MOMENT           -2.685E-17   AT NODE       7400   DOF  5
   INSTANCE: COMPOSITEPLATE-1                                                                
 LARGEST INCREMENT OF ROTATION      6.306E-21   AT NODE         13   DOF  5
   INSTANCE: COMPOSITEPLATE-1                                                                
 LARGEST CORRECTION TO ROTATION     1.046E-20   AT NODE         13   DOF  5
   INSTANCE: COMPOSITEPLATE-1                                                                
          THERE IS ZERO MOMENT    EVERYWHERE
 

 ***WARNING: THERE IS ZERO MOMENT EVERYWHERE IN THE MODEL BASED ON THE DEFAULT 
             CRITERION. PLEASE CHECK THE VALUE OF THE AVERAGE MOMENT DURING THE 
             CURRENT ITERATION TO VERIFY THAT THE MOMENT IS SMALL ENOUGH TO BE 
             TREATED AS ZERO. IF NOT, PLEASE USE THE SOLUTION CONTROLS TO RESET 
             THE CRITERION FOR ZERO MOMENT.
          TIME INCREMENT MAY NOW INCREASE TO    1.946E-03

 ITERATION SUMMARY FOR THE INCREMENT:   1 TOTAL ITERATIONS, OF WHICH
   0 ARE SEVERE DISCONTINUITY ITERATIONS AND  1 ARE EQUILIBRIUM ITERATIONS.

 TIME INCREMENT COMPLETED  1.297E-03,  FRACTION OF STEP COMPLETED  3.882E-03
 STEP TIME COMPLETED       3.882E-03,  TOTAL TIME COMPLETED        3.882E-03


  INCREMENT    15 STARTS. ATTEMPT NUMBER  1, TIME INCREMENT  1.946E-03

  NUMBER OF EQUATIONS =     80220     NUMBER OF FLOATING PT. OPERATIONS =  7.65E+09

     CHECK POINT   START OF SOLVER    

     CHECK POINT  END OF SOLVER       

       ELAPSED USER TIME (SEC)      =  0.90000    
       ELAPSED SYSTEM TIME (SEC)    =   0.0000    
       ELAPSED TOTAL CPU TIME (SEC) =  0.90000    
       ELAPSED WALLCLOCK TIME (SEC) =          1
 

 ***WARNING: SOLVER PROBLEM. NUMERICAL SINGULARITY WHEN PROCESSING NODE 
             COMPOSITEPLATE-1.4 D.O.F. 3 RATIO = 188.024E+12  .

               CONVERGENCE CHECKS FOR EQUILIBRIUM ITERATION     1


 AVERAGE FORCE                      0.106       TIME AVG. FORCE       2.110E-02
 LARGEST RESIDUAL FORCE             3.981E-10   AT NODE      14910   DOF  1
   INSTANCE: COMPOSITEPLATE-1                                                                
 LARGEST INCREMENT OF DISP.         1.070E-04   AT NODE          9   DOF  1
   INSTANCE: COMPOSITEPLATE-1                                                                
 LARGEST CORRECTION TO DISP.        2.539E-09   AT NODE       8275   DOF  1
   INSTANCE: COMPOSITEPLATE-1                                                                
          THE FORCE     EQUILIBRIUM EQUATIONS HAVE CONVERGED

 AVERAGE MOMENT                     2.042E-18   TIME AVG. MOMENT      1.000E-02
 LARGEST RESIDUAL MOMENT           -4.109E-17   AT NODE       5554   DOF  5
   INSTANCE: COMPOSITEPLATE-1                                                                
 LARGEST INCREMENT OF ROTATION     -6.335E-21   AT NODE        522   DOF  5
   INSTANCE: COMPOSITEPLATE-1                                                                
 LARGEST CORRECTION TO ROTATION    -8.803E-21   AT NODE        496   DOF  5
   INSTANCE: COMPOSITEPLATE-1                                                                
          THERE IS ZERO MOMENT    EVERYWHERE
 

 ***WARNING: THERE IS ZERO MOMENT EVERYWHERE IN THE MODEL BASED ON THE DEFAULT 
             CRITERION. PLEASE CHECK THE VALUE OF THE AVERAGE MOMENT DURING THE 
             CURRENT ITERATION TO VERIFY THAT THE MOMENT IS SMALL ENOUGH TO BE 
             TREATED AS ZERO. IF NOT, PLEASE USE THE SOLUTION CONTROLS TO RESET 
             THE CRITERION FOR ZERO MOMENT.
          TIME INCREMENT MAY NOW INCREASE TO    2.919E-03

 ITERATION SUMMARY FOR THE INCREMENT:   1 TOTAL ITERATIONS, OF WHICH
   0 ARE SEVERE DISCONTINUITY ITERATIONS AND  1 ARE EQUILIBRIUM ITERATIONS.

 TIME INCREMENT COMPLETED  1.946E-03,  FRACTION OF STEP COMPLETED  5.829E-03
 STEP TIME COMPLETED       5.829E-03,  TOTAL TIME COMPLETED        5.829E-03


  INCREMENT    16 STARTS. ATTEMPT NUMBER  1, TIME INCREMENT  2.919E-03

  NUMBER OF EQUATIONS =     80220     NUMBER OF FLOATING PT. OPERATIONS =  7.65E+09

     CHECK POINT   START OF SOLVER    

     CHECK POINT  END OF SOLVER       

       ELAPSED USER TIME (SEC)      =  0.90000    
       ELAPSED SYSTEM TIME (SEC)    =   0.0000    
       ELAPSED TOTAL CPU TIME (SEC) =  0.90000    
       ELAPSED WALLCLOCK TIME (SEC) =          1
 

 ***WARNING: SOLVER PROBLEM. NUMERICAL SINGULARITY WHEN PROCESSING NODE 
             COMPOSITEPLATE-1.4 D.O.F. 3 RATIO = 17.0347E+12 .

               CONVERGENCE CHECKS FOR EQUILIBRIUM ITERATION     1


 AVERAGE FORCE                      0.160       TIME AVG. FORCE       2.976E-02
 LARGEST RESIDUAL FORCE            -4.275E-10   AT NODE       8956   DOF  2
   INSTANCE: COMPOSITEPLATE-1                                                                
 LARGEST INCREMENT OF DISP.         1.606E-04   AT NODE          9   DOF  1
   INSTANCE: COMPOSITEPLATE-1                                                                
 LARGEST CORRECTION TO DISP.       -5.712E-09   AT NODE       5887   DOF  1
   INSTANCE: COMPOSITEPLATE-1                                                                
          THE FORCE     EQUILIBRIUM EQUATIONS HAVE CONVERGED

 AVERAGE MOMENT                     3.067E-18   TIME AVG. MOMENT      1.000E-02
 LARGEST RESIDUAL MOMENT            6.301E-17   AT NODE       7587   DOF  5
   INSTANCE: COMPOSITEPLATE-1                                                                
 LARGEST INCREMENT OF ROTATION      1.254E-20   AT NODE         15   DOF  5
   INSTANCE: COMPOSITEPLATE-1                                                                
 LARGEST CORRECTION TO ROTATION    -2.092E-20   AT NODE         13   DOF  5
   INSTANCE: COMPOSITEPLATE-1                                                                
          THERE IS ZERO MOMENT    EVERYWHERE
 

 ***WARNING: THERE IS ZERO MOMENT EVERYWHERE IN THE MODEL BASED ON THE DEFAULT 
             CRITERION. PLEASE CHECK THE VALUE OF THE AVERAGE MOMENT DURING THE 
             CURRENT ITERATION TO VERIFY THAT THE MOMENT IS SMALL ENOUGH TO BE 
             TREATED AS ZERO. IF NOT, PLEASE USE THE SOLUTION CONTROLS TO RESET 
             THE CRITERION FOR ZERO MOMENT.
          TIME INCREMENT MAY NOW INCREASE TO    4.379E-03

 ITERATION SUMMARY FOR THE INCREMENT:   1 TOTAL ITERATIONS, OF WHICH
   0 ARE SEVERE DISCONTINUITY ITERATIONS AND  1 ARE EQUILIBRIUM ITERATIONS.

 TIME INCREMENT COMPLETED  2.919E-03,  FRACTION OF STEP COMPLETED  8.748E-03
 STEP TIME COMPLETED       8.748E-03,  TOTAL TIME COMPLETED        8.748E-03


  INCREMENT    17 STARTS. ATTEMPT NUMBER  1, TIME INCREMENT  4.379E-03

  NUMBER OF EQUATIONS =     80220     NUMBER OF FLOATING PT. OPERATIONS =  7.65E+09

     CHECK POINT   START OF SOLVER    

     CHECK POINT  END OF SOLVER       

       ELAPSED USER TIME (SEC)      =  0.80000    
       ELAPSED SYSTEM TIME (SEC)    =   0.0000    
       ELAPSED TOTAL CPU TIME (SEC) =  0.80000    
       ELAPSED WALLCLOCK TIME (SEC) =          1
 

 ***WARNING: SOLVER PROBLEM. NUMERICAL SINGULARITY WHEN PROCESSING NODE 
             COMPOSITEPLATE-1.4 D.O.F. 3 RATIO = 85.3748E+12 .

               CONVERGENCE CHECKS FOR EQUILIBRIUM ITERATION     1


 AVERAGE FORCE                      0.240       TIME AVG. FORCE       4.212E-02
 LARGEST RESIDUAL FORCE            -1.082E-09   AT NODE       7440   DOF  1
   INSTANCE: COMPOSITEPLATE-1                                                                
 LARGEST INCREMENT OF DISP.         2.408E-04   AT NODE          9   DOF  1
   INSTANCE: COMPOSITEPLATE-1                                                                
 LARGEST CORRECTION TO DISP.        1.285E-08   AT NODE       8275   DOF  1
   INSTANCE: COMPOSITEPLATE-1                                                                
          THE FORCE     EQUILIBRIUM EQUATIONS HAVE CONVERGED

 AVERAGE MOMENT                     4.567E-18   TIME AVG. MOMENT      1.000E-02
 LARGEST RESIDUAL MOMENT            7.667E-17   AT NODE       7601   DOF  5
   INSTANCE: COMPOSITEPLATE-1                                                                
 LARGEST INCREMENT OF ROTATION     -2.347E-20   AT NODE         15   DOF  5
   INSTANCE: COMPOSITEPLATE-1                                                                
 LARGEST CORRECTION TO ROTATION    -4.228E-20   AT NODE         15   DOF  5
   INSTANCE: COMPOSITEPLATE-1                                                                
          THERE IS ZERO MOMENT    EVERYWHERE
 

 ***WARNING: THERE IS ZERO MOMENT EVERYWHERE IN THE MODEL BASED ON THE DEFAULT 
             CRITERION. PLEASE CHECK THE VALUE OF THE AVERAGE MOMENT DURING THE 
             CURRENT ITERATION TO VERIFY THAT THE MOMENT IS SMALL ENOUGH TO BE 
             TREATED AS ZERO. IF NOT, PLEASE USE THE SOLUTION CONTROLS TO RESET 
             THE CRITERION FOR ZERO MOMENT.
          TIME INCREMENT MAY NOW INCREASE TO    6.568E-03

 ITERATION SUMMARY FOR THE INCREMENT:   1 TOTAL ITERATIONS, OF WHICH
   0 ARE SEVERE DISCONTINUITY ITERATIONS AND  1 ARE EQUILIBRIUM ITERATIONS.

 TIME INCREMENT COMPLETED  4.379E-03,  FRACTION OF STEP COMPLETED  1.313E-02
 STEP TIME COMPLETED       1.313E-02,  TOTAL TIME COMPLETED        1.313E-02


  INCREMENT    18 STARTS. ATTEMPT NUMBER  1, TIME INCREMENT  6.568E-03

  NUMBER OF EQUATIONS =     80220     NUMBER OF FLOATING PT. OPERATIONS =  7.65E+09

     CHECK POINT   START OF SOLVER    

     CHECK POINT  END OF SOLVER       

       ELAPSED USER TIME (SEC)      =   1.0000    
       ELAPSED SYSTEM TIME (SEC)    =  0.10000    
       ELAPSED TOTAL CPU TIME (SEC) =   1.1000    
       ELAPSED WALLCLOCK TIME (SEC) =          1
 

 ***WARNING: SOLVER PROBLEM. NUMERICAL SINGULARITY WHEN PROCESSING NODE 
             COMPOSITEPLATE-1.4 D.O.F. 3 RATIO = 18.4783E+12 .

               CONVERGENCE CHECKS FOR EQUILIBRIUM ITERATION     1


 AVERAGE FORCE                      0.360       TIME AVG. FORCE       5.977E-02
 LARGEST RESIDUAL FORCE            -3.591E-09   AT NODE       7440   DOF  1
   INSTANCE: COMPOSITEPLATE-1                                                                
 LARGEST INCREMENT OF DISP.         3.613E-04   AT NODE          9   DOF  1
   INSTANCE: COMPOSITEPLATE-1                                                                
 LARGEST CORRECTION TO DISP.        2.890E-08   AT NODE       7065   DOF  1
   INSTANCE: COMPOSITEPLATE-1                                                                
          THE FORCE     EQUILIBRIUM EQUATIONS HAVE CONVERGED

 AVERAGE MOMENT                     6.826E-18   TIME AVG. MOMENT      1.000E-02
 LARGEST RESIDUAL MOMENT            1.458E-16   AT NODE       5309   DOF  4
   INSTANCE: COMPOSITEPLATE-1                                                                
 LARGEST INCREMENT OF ROTATION      1.916E-20   AT NODE        390   DOF  5
   INSTANCE: COMPOSITEPLATE-1                                                                
 LARGEST CORRECTION TO ROTATION     3.976E-20   AT NODE        390   DOF  5
   INSTANCE: COMPOSITEPLATE-1                                                                
          THERE IS ZERO MOMENT    EVERYWHERE
 

 ***WARNING: THERE IS ZERO MOMENT EVERYWHERE IN THE MODEL BASED ON THE DEFAULT 
             CRITERION. PLEASE CHECK THE VALUE OF THE AVERAGE MOMENT DURING THE 
             CURRENT ITERATION TO VERIFY THAT THE MOMENT IS SMALL ENOUGH TO BE 
             TREATED AS ZERO. IF NOT, PLEASE USE THE SOLUTION CONTROLS TO RESET 
             THE CRITERION FOR ZERO MOMENT.
          TIME INCREMENT MAY NOW INCREASE TO    9.853E-03

 ITERATION SUMMARY FOR THE INCREMENT:   1 TOTAL ITERATIONS, OF WHICH
   0 ARE SEVERE DISCONTINUITY ITERATIONS AND  1 ARE EQUILIBRIUM ITERATIONS.

 TIME INCREMENT COMPLETED  6.568E-03,  FRACTION OF STEP COMPLETED  1.970E-02
 STEP TIME COMPLETED       1.970E-02,  TOTAL TIME COMPLETED        1.970E-02


  INCREMENT    19 STARTS. ATTEMPT NUMBER  1, TIME INCREMENT  9.853E-03

  NUMBER OF EQUATIONS =     80220     NUMBER OF FLOATING PT. OPERATIONS =  7.65E+09

     CHECK POINT   START OF SOLVER    

     CHECK POINT  END OF SOLVER       

       ELAPSED USER TIME (SEC)      =  0.90000    
       ELAPSED SYSTEM TIME (SEC)    =   0.0000    
       ELAPSED TOTAL CPU TIME (SEC) =  0.90000    
       ELAPSED WALLCLOCK TIME (SEC) =          1
 

 ***WARNING: SOLVER PROBLEM. NUMERICAL SINGULARITY WHEN PROCESSING NODE 
             COMPOSITEPLATE-1.4 D.O.F. 3 RATIO = 2.66122E+15.

               CONVERGENCE CHECKS FOR EQUILIBRIUM ITERATION     1


 AVERAGE FORCE                      0.540       TIME AVG. FORCE       8.504E-02
 LARGEST RESIDUAL FORCE             1.211E-08   AT NODE       5482   DOF  1
   INSTANCE: COMPOSITEPLATE-1                                                                
 LARGEST INCREMENT OF DISP.         5.419E-04   AT NODE          9   DOF  1
   INSTANCE: COMPOSITEPLATE-1                                                                
 LARGEST CORRECTION TO DISP.        6.498E-08   AT NODE       7065   DOF  1
   INSTANCE: COMPOSITEPLATE-1                                                                
          THE FORCE     EQUILIBRIUM EQUATIONS HAVE CONVERGED

 AVERAGE MOMENT                     1.025E-17   TIME AVG. MOMENT      1.000E-02
 LARGEST RESIDUAL MOMENT            1.931E-16   AT NODE      15896   DOF  5
   INSTANCE: COMPOSITEPLATE-1                                                                
 LARGEST INCREMENT OF ROTATION     -4.207E-20   AT NODE         13   DOF  5
   INSTANCE: COMPOSITEPLATE-1                                                                
 LARGEST CORRECTION TO ROTATION     5.004E-20   AT NODE      12014   DOF  5
   INSTANCE: COMPOSITEPLATE-1                                                                
          THERE IS ZERO MOMENT    EVERYWHERE
 

 ***WARNING: THERE IS ZERO MOMENT EVERYWHERE IN THE MODEL BASED ON THE DEFAULT 
             CRITERION. PLEASE CHECK THE VALUE OF THE AVERAGE MOMENT DURING THE 
             CURRENT ITERATION TO VERIFY THAT THE MOMENT IS SMALL ENOUGH TO BE 
             TREATED AS ZERO. IF NOT, PLEASE USE THE SOLUTION CONTROLS TO RESET 
             THE CRITERION FOR ZERO MOMENT.
          TIME INCREMENT MAY NOW INCREASE TO    1.478E-02

 ITERATION SUMMARY FOR THE INCREMENT:   1 TOTAL ITERATIONS, OF WHICH
   0 ARE SEVERE DISCONTINUITY ITERATIONS AND  1 ARE EQUILIBRIUM ITERATIONS.

 TIME INCREMENT COMPLETED  9.853E-03,  FRACTION OF STEP COMPLETED  2.955E-02
 STEP TIME COMPLETED       2.955E-02,  TOTAL TIME COMPLETED        2.955E-02


  INCREMENT    20 STARTS. ATTEMPT NUMBER  1, TIME INCREMENT  1.478E-02

  NUMBER OF EQUATIONS =     80220     NUMBER OF FLOATING PT. OPERATIONS =  7.65E+09

     CHECK POINT   START OF SOLVER    

     CHECK POINT  END OF SOLVER       

       ELAPSED USER TIME (SEC)      =  0.90000    
       ELAPSED SYSTEM TIME (SEC)    =   0.0000    
       ELAPSED TOTAL CPU TIME (SEC) =  0.90000    
       ELAPSED WALLCLOCK TIME (SEC) =          1
 

 ***WARNING: SOLVER PROBLEM. NUMERICAL SINGULARITY WHEN PROCESSING NODE 
             COMPOSITEPLATE-1.4 D.O.F. 3 RATIO = 77.7715E+12 .

               CONVERGENCE CHECKS FOR EQUILIBRIUM ITERATION     1


 AVERAGE FORCE                      0.810       TIME AVG. FORCE       0.121    
 LARGEST RESIDUAL FORCE             4.066E-08   AT NODE       5027   DOF  1
   INSTANCE: COMPOSITEPLATE-1                                                                
 LARGEST INCREMENT OF DISP.         8.128E-04   AT NODE          9   DOF  1
   INSTANCE: COMPOSITEPLATE-1                                                                
 LARGEST CORRECTION TO DISP.        1.461E-07   AT NODE       7065   DOF  1
   INSTANCE: COMPOSITEPLATE-1                                                                
          THE FORCE     EQUILIBRIUM EQUATIONS HAVE CONVERGED

 AVERAGE MOMENT                     1.537E-17   TIME AVG. MOMENT      1.389E-02
                                                (FROM FORCE     FIELD)
 LARGEST RESIDUAL MOMENT            2.839E-16   AT NODE       7512   DOF  5
   INSTANCE: COMPOSITEPLATE-1                                                                
 LARGEST INCREMENT OF ROTATION      5.523E-20   AT NODE         13   DOF  5
   INSTANCE: COMPOSITEPLATE-1                                                                
 LARGEST CORRECTION TO ROTATION     1.183E-19   AT NODE         13   DOF  5
   INSTANCE: COMPOSITEPLATE-1                                                                
          THERE IS ZERO MOMENT    EVERYWHERE
          TIME INCREMENT MAY NOW INCREASE TO    2.217E-02

 ITERATION SUMMARY FOR THE INCREMENT:   1 TOTAL ITERATIONS, OF WHICH
   0 ARE SEVERE DISCONTINUITY ITERATIONS AND  1 ARE EQUILIBRIUM ITERATIONS.

 TIME INCREMENT COMPLETED  1.478E-02,  FRACTION OF STEP COMPLETED  4.433E-02
 STEP TIME COMPLETED       4.433E-02,  TOTAL TIME COMPLETED        4.433E-02


  INCREMENT    21 STARTS. ATTEMPT NUMBER  1, TIME INCREMENT  2.217E-02

  NUMBER OF EQUATIONS =     80220     NUMBER OF FLOATING PT. OPERATIONS =  7.65E+09

     CHECK POINT   START OF SOLVER    

     CHECK POINT  END OF SOLVER       

       ELAPSED USER TIME (SEC)      =   1.0000    
       ELAPSED SYSTEM TIME (SEC)    =   0.0000    
       ELAPSED TOTAL CPU TIME (SEC) =   1.0000    
       ELAPSED WALLCLOCK TIME (SEC) =          1
 

 ***WARNING: SOLVER PROBLEM. NUMERICAL SINGULARITY WHEN PROCESSING NODE 
             COMPOSITEPLATE-1.4 D.O.F. 3 RATIO = 55.4977E+12 .

               CONVERGENCE CHECKS FOR EQUILIBRIUM ITERATION     1


 AVERAGE FORCE                       1.22       TIME AVG. FORCE       0.173    
 LARGEST RESIDUAL FORCE            -1.365E-07   AT NODE       7872   DOF  1
   INSTANCE: COMPOSITEPLATE-1                                                                
 LARGEST INCREMENT OF DISP.         1.219E-03   AT NODE          9   DOF  1
   INSTANCE: COMPOSITEPLATE-1                                                                
 LARGEST CORRECTION TO DISP.        3.282E-07   AT NODE       7065   DOF  1
   INSTANCE: COMPOSITEPLATE-1                                                                
          THE FORCE     EQUILIBRIUM EQUATIONS HAVE CONVERGED

 AVERAGE MOMENT                     2.350E-17   TIME AVG. MOMENT      1.981E-02
                                                (FROM FORCE     FIELD)
 LARGEST RESIDUAL MOMENT            4.643E-16   AT NODE       7399   DOF  5
   INSTANCE: COMPOSITEPLATE-1                                                                
 LARGEST INCREMENT OF ROTATION     -7.974E-20   AT NODE      10625   DOF  5
   INSTANCE: COMPOSITEPLATE-1                                                                
 LARGEST CORRECTION TO ROTATION    -1.599E-19   AT NODE      10625   DOF  5
   INSTANCE: COMPOSITEPLATE-1                                                                
          THERE IS ZERO MOMENT    EVERYWHERE
          TIME INCREMENT MAY NOW INCREASE TO    3.325E-02

 ITERATION SUMMARY FOR THE INCREMENT:   1 TOTAL ITERATIONS, OF WHICH
   0 ARE SEVERE DISCONTINUITY ITERATIONS AND  1 ARE EQUILIBRIUM ITERATIONS.

 TIME INCREMENT COMPLETED  2.217E-02,  FRACTION OF STEP COMPLETED  6.650E-02
 STEP TIME COMPLETED       6.650E-02,  TOTAL TIME COMPLETED        6.650E-02


  INCREMENT    22 STARTS. ATTEMPT NUMBER  1, TIME INCREMENT  3.325E-02

  NUMBER OF EQUATIONS =     80220     NUMBER OF FLOATING PT. OPERATIONS =  7.65E+09

     CHECK POINT   START OF SOLVER    

     CHECK POINT  END OF SOLVER       

       ELAPSED USER TIME (SEC)      =   1.0000    
       ELAPSED SYSTEM TIME (SEC)    =   0.0000    
       ELAPSED TOTAL CPU TIME (SEC) =   1.0000    
       ELAPSED WALLCLOCK TIME (SEC) =          1
 

 ***WARNING: SOLVER PROBLEM. NUMERICAL SINGULARITY WHEN PROCESSING NODE 
             COMPOSITEPLATE-1.4 D.O.F. 3 RATIO = 22.1652E+12 .

               CONVERGENCE CHECKS FOR EQUILIBRIUM ITERATION     1


 AVERAGE FORCE                       1.82       TIME AVG. FORCE       0.248    
 LARGEST RESIDUAL FORCE            -4.573E-07   AT NODE       7440   DOF  1
   INSTANCE: COMPOSITEPLATE-1                                                                
 LARGEST INCREMENT OF DISP.         1.829E-03   AT NODE          9   DOF  1
   INSTANCE: COMPOSITEPLATE-1                                                                
 LARGEST CORRECTION TO DISP.        7.369E-07   AT NODE       7065   DOF  1
   INSTANCE: COMPOSITEPLATE-1                                                                
          THE FORCE     EQUILIBRIUM EQUATIONS HAVE CONVERGED

 AVERAGE MOMENT                     3.484E-17   TIME AVG. MOMENT      2.832E-02
                                                (FROM FORCE     FIELD)
 LARGEST RESIDUAL MOMENT           -7.178E-16   AT NODE       5519   DOF  5
   INSTANCE: COMPOSITEPLATE-1                                                                
 LARGEST INCREMENT OF ROTATION     -1.060E-19   AT NODE        458   DOF  5
   INSTANCE: COMPOSITEPLATE-1                                                                
 LARGEST CORRECTION TO ROTATION     1.770E-19   AT NODE        447   DOF  5
   INSTANCE: COMPOSITEPLATE-1                                                                
          THERE IS ZERO MOMENT    EVERYWHERE
          TIME INCREMENT MAY NOW INCREASE TO    4.988E-02

 ITERATION SUMMARY FOR THE INCREMENT:   1 TOTAL ITERATIONS, OF WHICH
   0 ARE SEVERE DISCONTINUITY ITERATIONS AND  1 ARE EQUILIBRIUM ITERATIONS.

 TIME INCREMENT COMPLETED  3.325E-02,  FRACTION OF STEP COMPLETED  0.100    
 STEP TIME COMPLETED       0.100    ,  TOTAL TIME COMPLETED        0.100    


  INCREMENT    23 STARTS. ATTEMPT NUMBER  1, TIME INCREMENT  4.988E-02

  NUMBER OF EQUATIONS =     80220     NUMBER OF FLOATING PT. OPERATIONS =  7.65E+09

     CHECK POINT   START OF SOLVER    

     CHECK POINT  END OF SOLVER       

       ELAPSED USER TIME (SEC)      =  0.90000    
       ELAPSED SYSTEM TIME (SEC)    =  0.10000    
       ELAPSED TOTAL CPU TIME (SEC) =   1.0000    
       ELAPSED WALLCLOCK TIME (SEC) =          1
 

 ***WARNING: SOLVER PROBLEM. NUMERICAL SINGULARITY WHEN PROCESSING NODE 
             COMPOSITEPLATE-1.4 D.O.F. 3 RATIO = 76.2413E+12 .

               CONVERGENCE CHECKS FOR EQUILIBRIUM ITERATION     1


 AVERAGE FORCE                       2.74       TIME AVG. FORCE       0.357    
 LARGEST RESIDUAL FORCE             5.288E-05   AT NODE       5370   DOF  1
   INSTANCE: COMPOSITEPLATE-1                                                                
 LARGEST INCREMENT OF DISP.         2.743E-03   AT NODE          9   DOF  1
   INSTANCE: COMPOSITEPLATE-1                                                                
 LARGEST CORRECTION TO DISP.        1.614E-06   AT NODE       1369   DOF  1
   INSTANCE: COMPOSITEPLATE-1                                                                
          THE FORCE     EQUILIBRIUM EQUATIONS HAVE CONVERGED

 AVERAGE MOMENT                     5.232E-17   TIME AVG. MOMENT      4.058E-02
                                                (FROM FORCE     FIELD)
 LARGEST RESIDUAL MOMENT            1.061E-15   AT NODE       5445   DOF  4
   INSTANCE: COMPOSITEPLATE-1                                                                
 LARGEST INCREMENT OF ROTATION      1.643E-19   AT NODE        341   DOF  5
   INSTANCE: COMPOSITEPLATE-1                                                                
 LARGEST CORRECTION TO ROTATION     2.209E-19   AT NODE      11521   DOF  5
   INSTANCE: COMPOSITEPLATE-1                                                                
          THERE IS ZERO MOMENT    EVERYWHERE
          TIME INCREMENT MAY NOW INCREASE TO    7.482E-02

 ITERATION SUMMARY FOR THE INCREMENT:   1 TOTAL ITERATIONS, OF WHICH
   0 ARE SEVERE DISCONTINUITY ITERATIONS AND  1 ARE EQUILIBRIUM ITERATIONS.

 TIME INCREMENT COMPLETED  4.988E-02,  FRACTION OF STEP COMPLETED  0.150    
 STEP TIME COMPLETED       0.150    ,  TOTAL TIME COMPLETED        0.150    


  INCREMENT    24 STARTS. ATTEMPT NUMBER  1, TIME INCREMENT  7.482E-02

  NUMBER OF EQUATIONS =     80220     NUMBER OF FLOATING PT. OPERATIONS =  7.65E+09

     CHECK POINT   START OF SOLVER    

     CHECK POINT  END OF SOLVER       

       ELAPSED USER TIME (SEC)      =  0.90000    
       ELAPSED SYSTEM TIME (SEC)    =   0.0000    
       ELAPSED TOTAL CPU TIME (SEC) =  0.90000    
       ELAPSED WALLCLOCK TIME (SEC) =          1
 

 ***WARNING: SOLVER PROBLEM. NUMERICAL SINGULARITY WHEN PROCESSING NODE 
             COMPOSITEPLATE-1.4 D.O.F. 3 RATIO = 72.5158E+12 .

               CONVERGENCE CHECKS FOR EQUILIBRIUM ITERATION     1


 AVERAGE FORCE                       4.11       TIME AVG. FORCE       0.513    
 LARGEST RESIDUAL FORCE             2.899E-03   AT NODE       7583   DOF  1
   INSTANCE: COMPOSITEPLATE-1                                                                
 LARGEST INCREMENT OF DISP.         4.115E-03   AT NODE          9   DOF  1
   INSTANCE: COMPOSITEPLATE-1                                                                
 LARGEST CORRECTION TO DISP.       -9.680E-06   AT NODE       7438   DOF  1
   INSTANCE: COMPOSITEPLATE-1                                                                
          FORCE     EQUILIBRIUM NOT ACHIEVED WITHIN TOLERANCE.

 AVERAGE MOMENT                     7.779E-17   TIME AVG. MOMENT      5.828E-02
                                                (FROM FORCE     FIELD)
 LARGEST RESIDUAL MOMENT           -1.366E-15   AT NODE        875   DOF  5
   INSTANCE: COMPOSITEPLATE-1                                                                
 LARGEST INCREMENT OF ROTATION     -3.315E-19   AT NODE        170   DOF  5
   INSTANCE: COMPOSITEPLATE-1                                                                
 LARGEST CORRECTION TO ROTATION    -5.541E-19   AT NODE        170   DOF  5
   INSTANCE: COMPOSITEPLATE-1                                                                
          THERE IS ZERO MOMENT    EVERYWHERE

  NUMBER OF EQUATIONS =     80220     NUMBER OF FLOATING PT. OPERATIONS =  7.65E+09

     CHECK POINT   START OF SOLVER    

     CHECK POINT  END OF SOLVER       

       ELAPSED USER TIME (SEC)      =  0.90000    
       ELAPSED SYSTEM TIME (SEC)    =   0.0000    
       ELAPSED TOTAL CPU TIME (SEC) =  0.90000    
       ELAPSED WALLCLOCK TIME (SEC) =          1
 

 ***WARNING: SOLVER PROBLEM. NUMERICAL SINGULARITY WHEN PROCESSING NODE 
             COMPOSITEPLATE-1.4 D.O.F. 3 RATIO = 40.2147E+12 .

               CONVERGENCE CHECKS FOR EQUILIBRIUM ITERATION     2


 AVERAGE FORCE                       4.11       TIME AVG. FORCE       0.513    
 LARGEST RESIDUAL FORCE             1.467E-05   AT NODE       5334   DOF  1
   INSTANCE: COMPOSITEPLATE-1                                                                
 LARGEST INCREMENT OF DISP.         4.115E-03   AT NODE          9   DOF  1
   INSTANCE: COMPOSITEPLATE-1                                                                
 LARGEST CORRECTION TO DISP.        2.480E-08   AT NODE        171   DOF  1
   INSTANCE: COMPOSITEPLATE-1                                                                
          THE FORCE     EQUILIBRIUM EQUATIONS HAVE CONVERGED

 AVERAGE MOMENT                     7.342E-17   TIME AVG. MOMENT      5.828E-02
                                                (FROM FORCE     FIELD)
 LARGEST RESIDUAL MOMENT            1.474E-15   AT NODE       5557   DOF  4
   INSTANCE: COMPOSITEPLATE-1                                                                
 LARGEST INCREMENT OF ROTATION      2.704E-19   AT NODE       5247   DOF  5
   INSTANCE: COMPOSITEPLATE-1                                                                
 LARGEST CORRECTION TO ROTATION     2.114E-19   AT NODE        358   DOF  5
   INSTANCE: COMPOSITEPLATE-1                                                                
          THERE IS ZERO MOMENT    EVERYWHERE
          TIME INCREMENT MAY NOW INCREASE TO    0.112    

 ITERATION SUMMARY FOR THE INCREMENT:   2 TOTAL ITERATIONS, OF WHICH
   0 ARE SEVERE DISCONTINUITY ITERATIONS AND  2 ARE EQUILIBRIUM ITERATIONS.

 TIME INCREMENT COMPLETED  7.482E-02,  FRACTION OF STEP COMPLETED  0.224    
 STEP TIME COMPLETED       0.224    ,  TOTAL TIME COMPLETED        0.224    


  INCREMENT    25 STARTS. ATTEMPT NUMBER  1, TIME INCREMENT  0.112    

  NUMBER OF EQUATIONS =     80220     NUMBER OF FLOATING PT. OPERATIONS =  7.65E+09

     CHECK POINT   START OF SOLVER    

     CHECK POINT  END OF SOLVER       

       ELAPSED USER TIME (SEC)      =  0.90000    
       ELAPSED SYSTEM TIME (SEC)    =  0.10000    
       ELAPSED TOTAL CPU TIME (SEC) =   1.0000    
       ELAPSED WALLCLOCK TIME (SEC) =          1
 

 ***WARNING: SOLVER PROBLEM. NUMERICAL SINGULARITY WHEN PROCESSING NODE 
             COMPOSITEPLATE-1.4 D.O.F. 3 RATIO = 28.5232E+12 .

               CONVERGENCE CHECKS FOR EQUILIBRIUM ITERATION     1


 AVERAGE FORCE                       6.17       TIME AVG. FORCE       0.740    
 LARGEST RESIDUAL FORCE            -6.378E-03   AT NODE       5139   DOF  1
   INSTANCE: COMPOSITEPLATE-1                                                                
 LARGEST INCREMENT OF DISP.         6.173E-03   AT NODE          9   DOF  1
   INSTANCE: COMPOSITEPLATE-1                                                                
 LARGEST CORRECTION TO DISP.        3.654E-05   AT NODE        963   DOF  1
   INSTANCE: COMPOSITEPLATE-1                                                                
          FORCE     EQUILIBRIUM NOT ACHIEVED WITHIN TOLERANCE.

 AVERAGE MOMENT                     1.163E-16   TIME AVG. MOMENT      8.385E-02
                                                (FROM FORCE     FIELD)
 LARGEST RESIDUAL MOMENT           -2.324E-15   AT NODE       5526   DOF  5
   INSTANCE: COMPOSITEPLATE-1                                                                
 LARGEST INCREMENT OF ROTATION     -3.917E-19   AT NODE        385   DOF  5
   INSTANCE: COMPOSITEPLATE-1                                                                
 LARGEST CORRECTION TO ROTATION    -6.011E-19   AT NODE       5247   DOF  5
   INSTANCE: COMPOSITEPLATE-1                                                                
          THERE IS ZERO MOMENT    EVERYWHERE

  NUMBER OF EQUATIONS =     80220     NUMBER OF FLOATING PT. OPERATIONS =  7.65E+09

     CHECK POINT   START OF SOLVER    

     CHECK POINT  END OF SOLVER       

       ELAPSED USER TIME (SEC)      =  0.90000    
       ELAPSED SYSTEM TIME (SEC)    =   0.0000    
       ELAPSED TOTAL CPU TIME (SEC) =  0.90000    
       ELAPSED WALLCLOCK TIME (SEC) =          1
 

 ***WARNING: SOLVER PROBLEM. NUMERICAL SINGULARITY WHEN PROCESSING NODE 
             COMPOSITEPLATE-1.4 D.O.F. 3 RATIO = 46.5928E+12 .

               CONVERGENCE CHECKS FOR EQUILIBRIUM ITERATION     2


 AVERAGE FORCE                       6.18       TIME AVG. FORCE       0.740    
 LARGEST RESIDUAL FORCE             1.887E-04   AT NODE       5139   DOF  1
   INSTANCE: COMPOSITEPLATE-1                                                                
 LARGEST INCREMENT OF DISP.         6.173E-03   AT NODE          9   DOF  1
   INSTANCE: COMPOSITEPLATE-1                                                                
 LARGEST CORRECTION TO DISP.       -4.044E-07   AT NODE        820   DOF  1
   INSTANCE: COMPOSITEPLATE-1                                                                
          THE FORCE     EQUILIBRIUM EQUATIONS HAVE CONVERGED

 AVERAGE MOMENT                     1.101E-16   TIME AVG. MOMENT      8.385E-02
                                                (FROM FORCE     FIELD)
 LARGEST RESIDUAL MOMENT           -2.123E-15   AT NODE       1479   DOF  5
   INSTANCE: COMPOSITEPLATE-1                                                                
 LARGEST INCREMENT OF ROTATION      3.855E-19   AT NODE         15   DOF  5
   INSTANCE: COMPOSITEPLATE-1                                                                
 LARGEST CORRECTION TO ROTATION     4.747E-19   AT NODE        172   DOF  5
   INSTANCE: COMPOSITEPLATE-1                                                                
          THERE IS ZERO MOMENT    EVERYWHERE
          TIME INCREMENT MAY NOW INCREASE TO    0.168    

 ITERATION SUMMARY FOR THE INCREMENT:   2 TOTAL ITERATIONS, OF WHICH
   0 ARE SEVERE DISCONTINUITY ITERATIONS AND  2 ARE EQUILIBRIUM ITERATIONS.

 TIME INCREMENT COMPLETED  0.112    ,  FRACTION OF STEP COMPLETED  0.337    
 STEP TIME COMPLETED       0.337    ,  TOTAL TIME COMPLETED        0.337    


  INCREMENT    26 STARTS. ATTEMPT NUMBER  1, TIME INCREMENT  0.168    

  NUMBER OF EQUATIONS =     80220     NUMBER OF FLOATING PT. OPERATIONS =  7.65E+09

     CHECK POINT   START OF SOLVER    

     CHECK POINT  END OF SOLVER       

       ELAPSED USER TIME (SEC)      =  0.90000    
       ELAPSED SYSTEM TIME (SEC)    =  0.10000    
       ELAPSED TOTAL CPU TIME (SEC) =   1.0000    
       ELAPSED WALLCLOCK TIME (SEC) =          1
 

 ***WARNING: SOLVER PROBLEM. NUMERICAL SINGULARITY WHEN PROCESSING NODE 
             COMPOSITEPLATE-1.4 D.O.F. 3 RATIO = 115.413E+12  .

               CONVERGENCE CHECKS FOR EQUILIBRIUM ITERATION     1


 AVERAGE FORCE                       9.24       TIME AVG. FORCE        1.07    
 LARGEST RESIDUAL FORCE             0.797       AT NODE        212   DOF  1
   INSTANCE: COMPOSITEPLATE-1                                                                
 LARGEST INCREMENT OF DISP.         9.259E-03   AT NODE          9   DOF  1
   INSTANCE: COMPOSITEPLATE-1                                                                
 LARGEST CORRECTION TO DISP.       -1.908E-04   AT NODE       7549   DOF  1
   INSTANCE: COMPOSITEPLATE-1                                                                
          FORCE     EQUILIBRIUM NOT ACHIEVED WITHIN TOLERANCE.

 AVERAGE MOMENT                     1.794E-16   TIME AVG. MOMENT      0.121    
                                                (FROM FORCE     FIELD)
 LARGEST RESIDUAL MOMENT           -3.494E-15   AT NODE       7403   DOF  4
   INSTANCE: COMPOSITEPLATE-1                                                                
 LARGEST INCREMENT OF ROTATION     -7.092E-19   AT NODE          4   DOF  5
   INSTANCE: COMPOSITEPLATE-1                                                                
 LARGEST CORRECTION TO ROTATION    -9.303E-19   AT NODE         15   DOF  5
   INSTANCE: COMPOSITEPLATE-1                                                                
          THERE IS ZERO MOMENT    EVERYWHERE

  NUMBER OF EQUATIONS =     80220     NUMBER OF FLOATING PT. OPERATIONS =  7.65E+09

     CHECK POINT   START OF SOLVER    

     CHECK POINT  END OF SOLVER       

       ELAPSED USER TIME (SEC)      =   1.0000    
       ELAPSED SYSTEM TIME (SEC)    =   0.0000    
       ELAPSED TOTAL CPU TIME (SEC) =   1.0000    
       ELAPSED WALLCLOCK TIME (SEC) =          1
 

 ***WARNING: SOLVER PROBLEM. NUMERICAL SINGULARITY WHEN PROCESSING NODE 
             COMPOSITEPLATE-1.4 D.O.F. 3 RATIO = 25.6475E+12 .

               CONVERGENCE CHECKS FOR EQUILIBRIUM ITERATION     2


[...]

     CHECK POINT  END OF SOLVER       

       ELAPSED USER TIME (SEC)      =   1.2000    
       ELAPSED SYSTEM TIME (SEC)    =   0.0000    
       ELAPSED TOTAL CPU TIME (SEC) =   1.2000    
       ELAPSED WALLCLOCK TIME (SEC) =          1
 

 ***WARNING: SOLVER PROBLEM. NUMERICAL SINGULARITY WHEN PROCESSING NODE 
             COMPOSITEPLATE-1.4 D.O.F. 3 RATIO = 29.8001E+12 .

               CONVERGENCE CHECKS FOR EQUILIBRIUM ITERATION     4


 AVERAGE FORCE                       14.6       TIME AVG. FORCE        2.00    
 LARGEST RESIDUAL FORCE             4.839E-03   AT NODE       5416   DOF  2
   INSTANCE: COMPOSITEPLATE-1                                                                
 LARGEST INCREMENT OF DISP.         3.334E-03   AT NODE          9   DOF  1
   INSTANCE: COMPOSITEPLATE-1                                                                
 LARGEST CORRECTION TO DISP.        1.432E-07   AT NODE        889   DOF  2
   INSTANCE: COMPOSITEPLATE-1                                                                
          THE FORCE     EQUILIBRIUM EQUATIONS HAVE CONVERGED

 AVERAGE MOMENT                     2.979E-16   TIME AVG. MOMENT      0.250    
                                                (FROM FORCE     FIELD)
 LARGEST RESIDUAL MOMENT           -6.324E-15   AT NODE       7472   DOF  5
   INSTANCE: COMPOSITEPLATE-1                                                                
 LARGEST INCREMENT OF ROTATION      4.612E-17   AT NODE        212   DOF  5
   INSTANCE: COMPOSITEPLATE-1                                                                
 LARGEST CORRECTION TO ROTATION     6.630E-18   AT NODE       5409   DOF  5
   INSTANCE: COMPOSITEPLATE-1                                                                
          THERE IS ZERO MOMENT    EVERYWHERE

 ITERATION SUMMARY FOR THE INCREMENT:   4 TOTAL ITERATIONS, OF WHICH
   0 ARE SEVERE DISCONTINUITY ITERATIONS AND  4 ARE EQUILIBRIUM ITERATIONS.

 TIME INCREMENT COMPLETED  6.062E-02,  FRACTION OF STEP COMPLETED  0.818    
 STEP TIME COMPLETED       0.818    ,  TOTAL TIME COMPLETED        0.818    


  INCREMENT    29 STARTS. ATTEMPT NUMBER  1, TIME INCREMENT  6.062E-02

  NUMBER OF EQUATIONS =     80220     NUMBER OF FLOATING PT. OPERATIONS =  7.65E+09

     CHECK POINT   START OF SOLVER    

     CHECK POINT  END OF SOLVER       

       ELAPSED USER TIME (SEC)      =  0.90000    
       ELAPSED SYSTEM TIME (SEC)    =  0.10000    
       ELAPSED TOTAL CPU TIME (SEC) =   1.0000    
       ELAPSED WALLCLOCK TIME (SEC) =          1
 

 ***WARNING: SOLVER PROBLEM. NUMERICAL SINGULARITY WHEN PROCESSING NODE 
             COMPOSITEPLATE-1.4 D.O.F. 3 RATIO = 43.9741E+12 .

               CONVERGENCE CHECKS FOR EQUILIBRIUM ITERATION     1


 AVERAGE FORCE                       15.6       TIME AVG. FORCE        2.47    
 LARGEST RESIDUAL FORCE             -2.91       AT NODE       7548   DOF  1
   INSTANCE: COMPOSITEPLATE-1                                                                
 LARGEST INCREMENT OF DISP.         3.334E-03   AT NODE          9   DOF  1
   INSTANCE: COMPOSITEPLATE-1                                                                
 LARGEST CORRECTION TO DISP.        1.299E-04   AT NODE       5517   DOF  1
   INSTANCE: COMPOSITEPLATE-1                                                                
          FORCE     EQUILIBRIUM NOT ACHIEVED WITHIN TOLERANCE.

 AVERAGE MOMENT                     3.409E-16   TIME AVG. MOMENT      0.327    
                                                (FROM FORCE     FIELD)
 LARGEST RESIDUAL MOMENT           -1.694E-14   AT NODE       5375   DOF  5
   INSTANCE: COMPOSITEPLATE-1                                                                
 LARGEST INCREMENT OF ROTATION      6.426E-17   AT NODE        212   DOF  5
   INSTANCE: COMPOSITEPLATE-1                                                                
 LARGEST CORRECTION TO ROTATION     1.814E-17   AT NODE        212   DOF  5
   INSTANCE: COMPOSITEPLATE-1                                                                
          THERE IS ZERO MOMENT    EVERYWHERE

  NUMBER OF EQUATIONS =     80220     NUMBER OF FLOATING PT. OPERATIONS =  7.65E+09

     CHECK POINT   START OF SOLVER    

     CHECK POINT  END OF SOLVER       

       ELAPSED USER TIME (SEC)      =  0.90000    
       ELAPSED SYSTEM TIME (SEC)    =  0.10000    
       ELAPSED TOTAL CPU TIME (SEC) =   1.0000    
       ELAPSED WALLCLOCK TIME (SEC) =          1
 

 ***WARNING: SOLVER PROBLEM. NUMERICAL SINGULARITY WHEN PROCESSING NODE 
             COMPOSITEPLATE-1.4 D.O.F. 3 RATIO = 51.9923E+12 .

               CONVERGENCE CHECKS FOR EQUILIBRIUM ITERATION     2


 AVERAGE FORCE                       15.6       TIME AVG. FORCE        2.47    
 LARGEST RESIDUAL FORCE             2.909E-02   AT NODE       5148   DOF  2
   INSTANCE: COMPOSITEPLATE-1                                                                
 LARGEST INCREMENT OF DISP.         3.334E-03   AT NODE          9   DOF  1
   INSTANCE: COMPOSITEPLATE-1                                                                
 LARGEST CORRECTION TO DISP.       -2.026E-05   AT NODE       7548   DOF  1
   INSTANCE: COMPOSITEPLATE-1                                                                
          FORCE     EQUILIBRIUM NOT ACHIEVED WITHIN TOLERANCE.

 AVERAGE MOMENT                     3.245E-16   TIME AVG. MOMENT      0.327    
                                                (FROM FORCE     FIELD)
 LARGEST RESIDUAL MOMENT            6.936E-15   AT NODE       1511   DOF  5
   INSTANCE: COMPOSITEPLATE-1                                                                
 LARGEST INCREMENT OF ROTATION      6.989E-17   AT NODE        212   DOF  5
   INSTANCE: COMPOSITEPLATE-1                                                                
 LARGEST CORRECTION TO ROTATION     7.828E-18   AT NODE        211   DOF  5
   INSTANCE: COMPOSITEPLATE-1                                                                
          THERE IS ZERO MOMENT    EVERYWHERE

  NUMBER OF EQUATIONS =     80220     NUMBER OF FLOATING PT. OPERATIONS =  7.65E+09

     CHECK POINT   START OF SOLVER    

     CHECK POINT  END OF SOLVER       

       ELAPSED USER TIME (SEC)      =   1.0000    
       ELAPSED SYSTEM TIME (SEC)    =   0.0000    
       ELAPSED TOTAL CPU TIME (SEC) =   1.0000    
       ELAPSED WALLCLOCK TIME (SEC) =          1
 

 ***WARNING: SOLVER PROBLEM. NUMERICAL SINGULARITY WHEN PROCESSING NODE 
             COMPOSITEPLATE-1.4 D.O.F. 3 RATIO = 352.284E+12  .

               CONVERGENCE CHECKS FOR EQUILIBRIUM ITERATION     3


 AVERAGE FORCE                       15.6       TIME AVG. FORCE        2.47    
 LARGEST RESIDUAL FORCE             5.536E-03   AT NODE       5113   DOF  2
   INSTANCE: COMPOSITEPLATE-1                                                                
 LARGEST INCREMENT OF DISP.         3.334E-03   AT NODE          9   DOF  1
   INSTANCE: COMPOSITEPLATE-1                                                                
 LARGEST CORRECTION TO DISP.        1.562E-07   AT NODE       5148   DOF  2
   INSTANCE: COMPOSITEPLATE-1                                                                
          THE FORCE     EQUILIBRIUM EQUATIONS HAVE CONVERGED

 AVERAGE MOMENT                     3.205E-16   TIME AVG. MOMENT      0.327    
                                                (FROM FORCE     FIELD)
 LARGEST RESIDUAL MOMENT           -6.296E-15   AT NODE       5444   DOF  5
   INSTANCE: COMPOSITEPLATE-1                                                                
 LARGEST INCREMENT OF ROTATION      6.426E-17   AT NODE        212   DOF  5
   INSTANCE: COMPOSITEPLATE-1                                                                
 LARGEST CORRECTION TO ROTATION    -1.519E-17   AT NODE        211   DOF  5
   INSTANCE: COMPOSITEPLATE-1                                                                
          THERE IS ZERO MOMENT    EVERYWHERE
          TIME INCREMENT MAY NOW INCREASE TO    9.093E-02

 ITERATION SUMMARY FOR THE INCREMENT:   3 TOTAL ITERATIONS, OF WHICH
   0 ARE SEVERE DISCONTINUITY ITERATIONS AND  3 ARE EQUILIBRIUM ITERATIONS.

 TIME INCREMENT COMPLETED  6.062E-02,  FRACTION OF STEP COMPLETED  0.879    
 STEP TIME COMPLETED       0.879    ,  TOTAL TIME COMPLETED        0.879    


  INCREMENT    30 STARTS. ATTEMPT NUMBER  1, TIME INCREMENT  9.093E-02

  NUMBER OF EQUATIONS =     80220     NUMBER OF FLOATING PT. OPERATIONS =  7.65E+09

     CHECK POINT   START OF SOLVER    

     CHECK POINT  END OF SOLVER       

       ELAPSED USER TIME (SEC)      =  0.90000    
       ELAPSED SYSTEM TIME (SEC)    =  0.10000    
       ELAPSED TOTAL CPU TIME (SEC) =   1.0000    
       ELAPSED WALLCLOCK TIME (SEC) =          1
 

 ***WARNING: SOLVER PROBLEM. NUMERICAL SINGULARITY WHEN PROCESSING NODE 
             COMPOSITEPLATE-1.4 D.O.F. 3 RATIO = 18.5268E+12 .

               CONVERGENCE CHECKS FOR EQUILIBRIUM ITERATION     1


 AVERAGE FORCE                       17.0       TIME AVG. FORCE        2.95    
 LARGEST RESIDUAL FORCE              2.68       AT NODE        832   DOF  1
   INSTANCE: COMPOSITEPLATE-1                                                                
 LARGEST INCREMENT OF DISP.         5.001E-03   AT NODE          9   DOF  1
   INSTANCE: COMPOSITEPLATE-1                                                                
 LARGEST CORRECTION TO DISP.        2.701E-04   AT NODE       5522   DOF  1
   INSTANCE: COMPOSITEPLATE-1                                                                
          FORCE     EQUILIBRIUM NOT ACHIEVED WITHIN TOLERANCE.

 AVERAGE MOMENT                     3.877E-16   TIME AVG. MOMENT      0.403    
                                                (FROM FORCE     FIELD)
 LARGEST RESIDUAL MOMENT            3.695E-14   AT NODE       7585   DOF  5
   INSTANCE: COMPOSITEPLATE-1                                                                
 LARGEST INCREMENT OF ROTATION      1.704E-16   AT NODE        212   DOF  5
   INSTANCE: COMPOSITEPLATE-1                                                                
 LARGEST CORRECTION TO ROTATION     7.401E-17   AT NODE        212   DOF  5
   INSTANCE: COMPOSITEPLATE-1                                                                
          THERE IS ZERO MOMENT    EVERYWHERE

  NUMBER OF EQUATIONS =     80220     NUMBER OF FLOATING PT. OPERATIONS =  7.65E+09

     CHECK POINT   START OF SOLVER    

     CHECK POINT  END OF SOLVER       

       ELAPSED USER TIME (SEC)      =  0.80000    
       ELAPSED SYSTEM TIME (SEC)    =   0.0000    
       ELAPSED TOTAL CPU TIME (SEC) =  0.80000    
       ELAPSED WALLCLOCK TIME (SEC) =          0
 

 ***WARNING: SOLVER PROBLEM. NUMERICAL SINGULARITY WHEN PROCESSING NODE 
             COMPOSITEPLATE-1.4 D.O.F. 3 RATIO = 17.3720E+12 .

               CONVERGENCE CHECKS FOR EQUILIBRIUM ITERATION     2


 AVERAGE FORCE                       17.0       TIME AVG. FORCE        2.95    
 LARGEST RESIDUAL FORCE             0.128       AT NODE       7585   DOF  1
   INSTANCE: COMPOSITEPLATE-1                                                                
 LARGEST INCREMENT OF DISP.         5.001E-03   AT NODE          9   DOF  1
   INSTANCE: COMPOSITEPLATE-1                                                                
 LARGEST CORRECTION TO DISP.       -3.666E-05   AT NODE       1522   DOF  1
   INSTANCE: COMPOSITEPLATE-1                                                                
          FORCE     EQUILIBRIUM NOT ACHIEVED WITHIN TOLERANCE.

 AVERAGE MOMENT                     3.625E-16   TIME AVG. MOMENT      0.403    
                                                (FROM FORCE     FIELD)
 LARGEST RESIDUAL MOMENT            6.084E-15   AT NODE       7579   DOF  4
   INSTANCE: COMPOSITEPLATE-1                                                                
 LARGEST INCREMENT OF ROTATION      1.635E-16   AT NODE        212   DOF  5
   INSTANCE: COMPOSITEPLATE-1                                                                
 LARGEST CORRECTION TO ROTATION    -1.172E-17   AT NODE        169   DOF  5
   INSTANCE: COMPOSITEPLATE-1                                                                
          THERE IS ZERO MOMENT    EVERYWHERE

  NUMBER OF EQUATIONS =     80220     NUMBER OF FLOATING PT. OPERATIONS =  7.65E+09

     CHECK POINT   START OF SOLVER    

     CHECK POINT  END OF SOLVER       

       ELAPSED USER TIME (SEC)      =  0.80000    
       ELAPSED SYSTEM TIME (SEC)    =  0.10000    
       ELAPSED TOTAL CPU TIME (SEC) =  0.90000    
       ELAPSED WALLCLOCK TIME (SEC) =          1
 

 ***WARNING: SOLVER PROBLEM. NUMERICAL SINGULARITY WHEN PROCESSING NODE 
             COMPOSITEPLATE-1.4 D.O.F. 3 RATIO = 37.9816E+12 .

               CONVERGENCE CHECKS FOR EQUILIBRIUM ITERATION     3


 AVERAGE FORCE                       17.0       TIME AVG. FORCE        2.95    
 LARGEST RESIDUAL FORCE            -1.085E-02   AT NODE       5114   DOF  2
   INSTANCE: COMPOSITEPLATE-1                                                                
 LARGEST INCREMENT OF DISP.         5.001E-03   AT NODE          9   DOF  1
   INSTANCE: COMPOSITEPLATE-1                                                                
 LARGEST CORRECTION TO DISP.       -2.946E-06   AT NODE       7584   DOF  1
   INSTANCE: COMPOSITEPLATE-1                                                                
          THE FORCE     EQUILIBRIUM EQUATIONS HAVE CONVERGED

 AVERAGE MOMENT                     3.577E-16   TIME AVG. MOMENT      0.403    
                                                (FROM FORCE     FIELD)
 LARGEST RESIDUAL MOMENT           -6.445E-15   AT NODE       7540   DOF  5
   INSTANCE: COMPOSITEPLATE-1                                                                
 LARGEST INCREMENT OF ROTATION      1.621E-16   AT NODE        212   DOF  5
   INSTANCE: COMPOSITEPLATE-1                                                                
 LARGEST CORRECTION TO ROTATION     1.196E-17   AT NODE       7587   DOF  5
   INSTANCE: COMPOSITEPLATE-1                                                                
          THERE IS ZERO MOMENT    EVERYWHERE

 ITERATION SUMMARY FOR THE INCREMENT:   3 TOTAL ITERATIONS, OF WHICH
   0 ARE SEVERE DISCONTINUITY ITERATIONS AND  3 ARE EQUILIBRIUM ITERATIONS.

 TIME INCREMENT COMPLETED  9.093E-02,  FRACTION OF STEP COMPLETED  0.970    
 STEP TIME COMPLETED       0.970    ,  TOTAL TIME COMPLETED        0.970    


  INCREMENT    31 STARTS. ATTEMPT NUMBER  1, TIME INCREMENT  3.031E-02

  NUMBER OF EQUATIONS =     80220     NUMBER OF FLOATING PT. OPERATIONS =  7.65E+09

     CHECK POINT   START OF SOLVER    

     CHECK POINT  END OF SOLVER       

       ELAPSED USER TIME (SEC)      =  0.90000    
       ELAPSED SYSTEM TIME (SEC)    =  0.10000    
       ELAPSED TOTAL CPU TIME (SEC) =   1.0000    
       ELAPSED WALLCLOCK TIME (SEC) =          1
 

 ***WARNING: SOLVER PROBLEM. NUMERICAL SINGULARITY WHEN PROCESSING NODE 
             COMPOSITEPLATE-1.4 D.O.F. 3 RATIO = 863.191E+12  .

               CONVERGENCE CHECKS FOR EQUILIBRIUM ITERATION     1


 AVERAGE FORCE                       17.5       TIME AVG. FORCE        3.42    
 LARGEST RESIDUAL FORCE            -0.250       AT NODE       7471   DOF  1
   INSTANCE: COMPOSITEPLATE-1                                                                
 LARGEST INCREMENT OF DISP.         1.667E-03   AT NODE          9   DOF  1
   INSTANCE: COMPOSITEPLATE-1                                                                
 LARGEST CORRECTION TO DISP.        7.284E-05   AT NODE       5522   DOF  1
   INSTANCE: COMPOSITEPLATE-1                                                                
          FORCE     EQUILIBRIUM NOT ACHIEVED WITHIN TOLERANCE.

 AVERAGE MOMENT                     3.819E-16   TIME AVG. MOMENT      0.482    
                                                (FROM FORCE     FIELD)
 LARGEST RESIDUAL MOMENT            1.816E-14   AT NODE       5451   DOF  5
   INSTANCE: COMPOSITEPLATE-1                                                                
 LARGEST INCREMENT OF ROTATION      7.995E-17   AT NODE        212   DOF  5
   INSTANCE: COMPOSITEPLATE-1                                                                
 LARGEST CORRECTION TO ROTATION     2.592E-17   AT NODE        212   DOF  5
   INSTANCE: COMPOSITEPLATE-1                                                                
          THERE IS ZERO MOMENT    EVERYWHERE

  NUMBER OF EQUATIONS =     80220     NUMBER OF FLOATING PT. OPERATIONS =  7.65E+09

     CHECK POINT   START OF SOLVER    

     CHECK POINT  END OF SOLVER       

       ELAPSED USER TIME (SEC)      =  0.80000    
       ELAPSED SYSTEM TIME (SEC)    =  0.10000    
       ELAPSED TOTAL CPU TIME (SEC) =  0.90000    
       ELAPSED WALLCLOCK TIME (SEC) =          0
 

 ***WARNING: SOLVER PROBLEM. NUMERICAL SINGULARITY WHEN PROCESSING NODE 
             COMPOSITEPLATE-1.4 D.O.F. 3 RATIO = 123.451E+12  .

               CONVERGENCE CHECKS FOR EQUILIBRIUM ITERATION     2


 AVERAGE FORCE                       17.5       TIME AVG. FORCE        3.42    
 LARGEST RESIDUAL FORCE             1.684E-02   AT NODE       7457   DOF  2
   INSTANCE: COMPOSITEPLATE-1                                                                
 LARGEST INCREMENT OF DISP.         1.667E-03   AT NODE          9   DOF  1
   INSTANCE: COMPOSITEPLATE-1                                                                
 LARGEST CORRECTION TO DISP.        2.624E-06   AT NODE        832   DOF  1
   INSTANCE: COMPOSITEPLATE-1                                                                
          THE FORCE     EQUILIBRIUM EQUATIONS HAVE CONVERGED

 AVERAGE MOMENT                     3.724E-16   TIME AVG. MOMENT      0.482    
                                                (FROM FORCE     FIELD)
 LARGEST RESIDUAL MOMENT           -7.248E-15   AT NODE       7510   DOF  5
   INSTANCE: COMPOSITEPLATE-1                                                                
 LARGEST INCREMENT OF ROTATION      8.046E-17   AT NODE        212   DOF  5
   INSTANCE: COMPOSITEPLATE-1                                                                
 LARGEST CORRECTION TO ROTATION    -5.562E-18   AT NODE       7475   DOF  5
   INSTANCE: COMPOSITEPLATE-1                                                                
          THERE IS ZERO MOMENT    EVERYWHERE

 ITERATION SUMMARY FOR THE INCREMENT:   2 TOTAL ITERATIONS, OF WHICH
   0 ARE SEVERE DISCONTINUITY ITERATIONS AND  2 ARE EQUILIBRIUM ITERATIONS.

 TIME INCREMENT COMPLETED  3.031E-02,  FRACTION OF STEP COMPLETED   1.00    
 STEP TIME COMPLETED        1.00    ,  TOTAL TIME COMPLETED         1.00    


          THE ANALYSIS HAS BEEN COMPLETED



     ANALYSIS SUMMARY:
     TOTAL OF         31  INCREMENTS
                       1  CUTBACKS IN AUTOMATIC INCREMENTATION
                      53  ITERATIONS INCLUDING CONTACT ITERATIONS IF PRESENT
                      53  PASSES THROUGH THE EQUATION SOLVER OF WHICH 
                      53  INVOLVE MATRIX DECOMPOSITION, INCLUDING
                       0  DECOMPOSITION(S) OF THE MASS MATRIX
                       1  REORDERING OF EQUATIONS TO MINIMIZE WAVEFRONT
                       0  ADDITIONAL RESIDUAL EVALUATIONS FOR LINE SEARCHES
                       0  ADDITIONAL OPERATOR EVALUATIONS FOR LINE SEARCHES
                       2  WARNING MESSAGES DURING USER INPUT PROCESSING
                      79  WARNING MESSAGES DURING ANALYSIS
                      55  ANALYSIS WARNINGS ARE NUMERICAL PROBLEM MESSAGES
                       4  ANALYSIS WARNINGS ARE NEGATIVE EIGENVALUE MESSAGES
                       0  ERROR MESSAGES



     JOB TIME SUMMARY
       USER TIME (SEC)      =   162.40    
       SYSTEM TIME (SEC)    =   6.7000    
       TOTAL CPU TIME (SEC) =   169.10    
       WALLCLOCK TIME (SEC) =        171
