 Abaqus/Standard 3DEXPERIENCE R2017x                  DATE 19-Apr-2019 TIME 16:04:32
 SUMMARY OF JOB INFORMATION:
 STEP  INC ATT SEVERE EQUIL TOTAL  TOTAL      STEP       INC OF       DOF    IF
               DISCON ITERS ITERS  TIME/    TIME/LPF    TIME/LPF    MONITOR RIKS
               ITERS               FREQ
   1     1   1     0     2     2  1.00e-005  1.00e-005  1.000e-005
   1     2   1     0     1     1  2.00e-005  2.00e-005  1.000e-005
   1     3   1     0     1     1  3.50e-005  3.50e-005  1.500e-005
   1     4   1     0     1     1  5.75e-005  5.75e-005  2.250e-005
   1     5   1     0     1     1  9.13e-005  9.13e-005  3.375e-005
   1     6   1     0     1     1  0.000142   0.000142   5.063e-005
   1     7   1     0     1     1  0.000218   0.000218   7.594e-005
   1     8   1     0     1     1  0.000332   0.000332   0.0001139 
   1     9   1     0     1     1  0.000503   0.000503   0.0001709 
   1    10   1     0     1     1  0.000759   0.000759   0.0002563 
   1    11   1     0     1     1  0.00114    0.00114    0.0003844 
   1    12   1     0     1     1  0.00172    0.00172    0.0005767 
   1    13   1     0     1     1  0.00258    0.00258    0.0008650 
   1    14   1     0     1     1  0.00388    0.00388    0.001297  
   1    15   1     0     1     1  0.00583    0.00583    0.001946  
   1    16   1     0     1     1  0.00875    0.00875    0.002919  
   1    17   1     0     1     1  0.0131     0.0131     0.004379  
   1    18   1     0     1     1  0.0197     0.0197     0.006568  
   1    19   1     0     1     1  0.0295     0.0295     0.009853  
   1    20   1     0     1     1  0.0443     0.0443     0.01478   
   1    21   1     0     1     1  0.0665     0.0665     0.02217   
   1    22   1     0     1     1  0.0997     0.0997     0.03325   
   1    23   1     0     1     1  0.150      0.150      0.04988   
   1    24   1     0     1     1  0.224      0.224      0.07482   
   1    25   1     0     1     1  0.337      0.337      0.1122    
   1    26   1     0     2     2  0.505      0.505      0.1683    
   1    27   1     0     3     3  0.758      0.758      0.2525    
   1    28   1U    0     5     5  0.758      0.758      0.2425    
   1    28   2     0     3     3  0.818      0.818      0.06062   
   1    29   1U    0     7     7  0.818      0.818      0.09093   
   1    29   2     0     2     2  0.841      0.841      0.02273   
   1    30   1     0     2     2  0.875      0.875      0.03410   
   1    31   1U    0     9     9  0.875      0.875      0.05115   
   1    31   2U    0     5     5  0.875      0.875      0.02557   
   1    31   3     0     2     2  0.881      0.881      0.006393  
   1    32   1     0     2     2  0.891      0.891      0.009590  
   1    33   1U    0     4     4  0.891      0.891      0.01439   
   1    33   2U    0     4     4  0.891      0.891      0.003596  
   1    33   3     0     2     2  0.892      0.892      0.0008991 
   1    34   1     0     1     1  0.893      0.893      0.001349  
   1    35   1     0     1     1  0.895      0.895      0.002023  
   1    36   1U    0     4     4  0.895      0.895      0.003034  
   1    36   2     0     1     1  0.896      0.896      0.0007586 
   1    37   1     0     1     1  0.897      0.897      0.001138  
   1    38   1     0     1     1  0.899      0.899      0.001707  
   1    39   1U    0     4     4  0.899      0.899      0.002560  
   1    39   2     0     1     1  0.899      0.899      0.0006401 
   1    40   1     0     1     1  0.900      0.900      0.0009601 
   1    41   1     0     3     3  0.902      0.902      0.001440  
   1    42   1U    0     5     5  0.902      0.902      0.002160  
   1    42   2     0     3     3  0.902      0.902      0.0005401 
   1    43   1     0     3     3  0.903      0.903      0.0008101 
   1    44   1     0     1     1  0.904      0.904      0.001215  
   1    45   1     0    13    13  0.906      0.906      0.001823  
   1    46   1     0     3     3  0.908      0.908      0.001367  
   1    47   1     0     4     4  0.909      0.909      0.001367  
   1    48   1     0     3     3  0.911      0.911      0.002051  
   1    49   1     0     4     4  0.914      0.914      0.003076  
   1    50   1     0     5     5  0.919      0.919      0.004614  
   1    51   1     0     4     4  0.923      0.923      0.004614  
   1    52   1     0     4     4  0.928      0.928      0.004614  
   1    53   1     0     4     4  0.935      0.935      0.006920  
   1    54   1U    0     9     9  0.935      0.935      0.01038   
   1    54   2     0     3     3  0.937      0.937      0.002595  
   1    55   1     0     3     3  0.941      0.941      0.003893  
   1    56   1     0     4     4  0.947      0.947      0.005839  
   1    57   1     0     5     5  0.956      0.956      0.008759  
   1    58   1     0     5     5  0.965      0.965      0.008759  
   1    59   1     0     4     4  0.973      0.973      0.008759  
   1    60   1     0     4     4  0.982      0.982      0.008759  
   1    61   1     0     4     4  0.995      0.995      0.01314   
   1    62   1     0     3     3  1.00       1.00       0.004619  
                          
 THE ANALYSIS HAS COMPLETED SUCCESSFULLY
