 Abaqus/Standard 3DEXPERIENCE R2017x                  DATE 22-Apr-2019 TIME 11:42:28
 SUMMARY OF JOB INFORMATION:
 STEP  INC ATT SEVERE EQUIL TOTAL  TOTAL      STEP       INC OF       DOF    IF
               DISCON ITERS ITERS  TIME/    TIME/LPF    TIME/LPF    MONITOR RIKS
               ITERS               FREQ
   1     1   1     0     2     2  1.00e-005  1.00e-005  1.000e-005
   1     2   1     0     1     1  2.00e-005  2.00e-005  1.000e-005
   1     3   1     0     1     1  3.50e-005  3.50e-005  1.500e-005
   1     4   1     0     1     1  5.75e-005  5.75e-005  2.250e-005
   1     5   1     0     1     1  9.13e-005  9.13e-005  3.375e-005
   1     6   1     0     1     1  0.000142   0.000142   5.063e-005
   1     7   1     0     1     1  0.000218   0.000218   7.594e-005
   1     8   1     0     1     1  0.000332   0.000332   0.0001139 
   1     9   1     0     1     1  0.000503   0.000503   0.0001709 
   1    10   1     0     1     1  0.000759   0.000759   0.0002563 
   1    11   1     0     1     1  0.00114    0.00114    0.0003844 
   1    12   1     0     1     1  0.00172    0.00172    0.0005767 
   1    13   1     0     1     1  0.00258    0.00258    0.0008650 
   1    14   1     0     1     1  0.00388    0.00388    0.001297  
   1    15   1     0     1     1  0.00583    0.00583    0.001946  
   1    16   1     0     1     1  0.00875    0.00875    0.002919  
   1    17   1     0     1     1  0.0131     0.0131     0.004379  
   1    18   1     0     1     1  0.0197     0.0197     0.006568  
   1    19   1     0     1     1  0.0295     0.0295     0.009853  
   1    20   1     0     1     1  0.0443     0.0443     0.01478   
   1    21   1     0     1     1  0.0665     0.0665     0.02217   
   1    22   1     0     1     1  0.0997     0.0997     0.03325   
   1    23   1     0     1     1  0.150      0.150      0.04988   
   1    24   1     0     1     1  0.224      0.224      0.07482   
   1    25   1     0     2     2  0.337      0.337      0.1122    
   1    26   1     0     2     2  0.505      0.505      0.1683    
   1    27   1     0     3     3  0.758      0.758      0.2525    
   1    28   1U    0     5     5  0.758      0.758      0.2425    
   1    28   2     0     3     3  0.818      0.818      0.06062   
   1    29   1     0     3     3  0.909      0.909      0.09093   
   1    30   1U    0     4     4  0.909      0.909      0.09093   
   1    30   2U    0     4     4  0.909      0.909      0.02273   
   1    30   3U    0     4     4  0.909      0.909      0.005683  
   1    30   4     0     2     2  0.910      0.910      0.001421  
   1    31   1     0     1     1  0.913      0.913      0.002131  
   1    32   1U    0     4     4  0.913      0.913      0.003197  
   1    32   2     0     1     1  0.913      0.913      0.0007992 
   1    33   1     0     2     2  0.915      0.915      0.001199  
   1    34   1U    0     6     6  0.915      0.915      0.001798  
   1    34   2     0     1     1  0.915      0.915      0.0004495 
   1    35   1     0     1     1  0.916      0.916      0.0006743 
   1    36   1     0     1     1  0.917      0.917      0.001011  
   1    37   1     0     1     1  0.918      0.918      0.001517  
   1    38   1U    0     4     4  0.918      0.918      0.002276  
   1    38   2     0     1     1  0.919      0.919      0.0005689 
   1    39   1     0     1     1  0.920      0.920      0.0008534 
   1    40   1     0     1     1  0.921      0.921      0.001280  
   1    41   1U    0     7     7  0.921      0.921      0.001920  
   1    41   2     0     1     1  0.921      0.921      0.0004800 
   1    42   1     0     1     1  0.922      0.922      0.0007201 
   1    43   1U    0     4     4  0.922      0.922      0.001080  
   1    43   2     0     1     1  0.922      0.922      0.0002700 
   1    44   1     0     1     1  0.923      0.923      0.0004050 
   1    45   1U    0     6     6  0.923      0.923      0.0006076 
   1    45   2     0     1     1  0.923      0.923      0.0001519 
   1    46   1     0     1     1  0.923      0.923      0.0002278 
   1    47   1     0     1     1  0.924      0.924      0.0003418 
   1    48   1     0     2     2  0.924      0.924      0.0005126 
   1    49   1U    0     5     5  0.924      0.924      0.0007689 
   1    49   2     0     1     1  0.924      0.924      0.0001922 
   1    50   1     0     1     1  0.925      0.925      0.0002884 
   1    51   1     0     2     2  0.925      0.925      0.0004325 
   1    52   1U    0     6     6  0.925      0.925      0.0006488 
   1    52   2     0     1     1  0.925      0.925      0.0001622 
   1    53   1     0     1     1  0.925      0.925      0.0002433 
   1    54   1     0     4     4  0.926      0.926      0.0003649 
   1    55   1     0     2     2  0.926      0.926      0.0005474 
   1    56   1U    0     4     4  0.926      0.926      0.0008211 
   1    56   2     0     1     1  0.927      0.927      0.0002053 
   1    57   1     0     1     1  0.927      0.927      0.0003079 
   1    58   1U    0     4     4  0.927      0.927      0.0004619 
   1    58   2     0     1     1  0.927      0.927      0.0001155 
   1    59   1     0     1     1  0.927      0.927      0.0001732 
   1    60   1     0     2     2  0.927      0.927      0.0002598 
   1    61   1     0     4     4  0.928      0.928      0.0003897 
   1    62   1U    0     5     5  0.928      0.928      0.0005846 
   1    62   2     0     1     1  0.928      0.928      0.0001461 
   1    63   1     0     1     1  0.928      0.928      0.0002192 
   1    64   1     0     2     2  0.928      0.928      0.0003288 
   1    65   1     0     6     6  0.929      0.929      0.0004932 
   1    66   1U    0     4     4  0.929      0.929      0.0004932 
   1    66   2     0     1     1  0.929      0.929      0.0001233 
   1    67   1     0     1     1  0.929      0.929      0.0001233 
   1    68   1     0     1     1  0.929      0.929      0.0001850 
   1    69   1     0     1     1  0.930      0.930      0.0002774 
   1    70   1     0     4     4  0.930      0.930      0.0004162 
   1    71   1U    0     4     4  0.930      0.930      0.0006242 
   1    71   2     0     1     1  0.930      0.930      0.0001561 
   1    72   1     0     2     2  0.930      0.930      0.0002341 
   1    73   1     0     3     3  0.931      0.931      0.0003511 
   1    74   1     0    16    16  0.931      0.931      0.0005267 
   1    75   1U    0     9     9  0.931      0.931      0.0003950 
   1    75   2     0     3     3  0.932      0.932      0.0001975 
   1    76   1     0     5     5  0.932      0.932      0.0001975 
   1    77   1     0     5     5  0.932      0.932      0.0001975 
   1    78   1     0     3     3  0.932      0.932      0.0001975 
   1    79   1     0     6     6  0.932      0.932      0.0001975 
   1    80   1     0     4     4  0.933      0.933      0.0001975 
   1    81   1     0     3     3  0.933      0.933      0.0001975 
   1    82   1     0     3     3  0.933      0.933      0.0002963 
   1    83   1     0    10    10  0.933      0.933      0.0004444 
   1    84   1     0     8     8  0.934      0.934      0.0004444 
   1    85   1     0     8     8  0.934      0.934      0.0004444 
   1    86   1     0    10    10  0.935      0.935      0.0004444 
   1    87   1     0     7     7  0.935      0.935      0.0004444 
   1    88   1U    0     9     9  0.935      0.935      0.0004444 
   1    88   2     0     4     4  0.935      0.935      0.0002222 
   1    89   1     0     4     4  0.936      0.936      0.0002222 
   1    90   1     0     7     7  0.936      0.936      0.0003333 
   1    91   1     0     7     7  0.936      0.936      0.0003333 
   1    92   1     0     5     5  0.937      0.937      0.0003333 
   1    93   1     0     4     4  0.937      0.937      0.0003333 
   1    94   1U    0     5     5  0.937      0.937      0.0003333 
   1    94   2     0     1     1  0.937      0.937      8.333e-005
   1    95   1     0     1     1  0.937      0.937      0.0001250 
   1    96   1     0     3     3  0.937      0.937      0.0001875 
   1    97   1     0     2     2  0.938      0.938      0.0002812 
   1    98   1     0    11    11  0.938      0.938      0.0004218 
   1    99   1     0     3     3  0.938      0.938      0.0003164 
   1   100   1     0     5     5  0.939      0.939      0.0003164 
   1   101   1     0     3     3  0.939      0.939      0.0003164 
   1   102   1     0     7     7  0.939      0.939      0.0003164 
   1   103   1     0     5     5  0.940      0.940      0.0003164 
   1   104   1     0     6     6  0.940      0.940      0.0003164 
   1   105   1     0     7     7  0.940      0.940      0.0003164 
   1   106   1     0     3     3  0.941      0.941      0.0003164 
   1   107   1     0     2     2  0.941      0.941      0.0003164 
   1   108   1     0     5     5  0.941      0.941      0.0004746 
   1   109   1     0     5     5  0.942      0.942      0.0004746 
   1   110   1     0     5     5  0.942      0.942      0.0004746 
   1   111   1     0    15    15  0.943      0.943      0.0004746 
   1   112   1     0     4     4  0.943      0.943      0.0003559 
   1   113   1     0     5     5  0.944      0.944      0.0003559 
   1   114   1     0     5     5  0.944      0.944      0.0003559 
   1   115   1     0     3     3  0.944      0.944      0.0003559 
   1   116   1     0     3     3  0.945      0.945      0.0003559 
   1   117   1     0     4     4  0.945      0.945      0.0005339 
   1   118   1U    0     4     4  0.945      0.945      0.0008008 
   1   118   2     0     3     3  0.945      0.945      0.0002002 
   1   119   1     0     3     3  0.946      0.946      0.0003003 
   1   120   1     0    10    10  0.946      0.946      0.0004505 
   1   121   1     0     3     3  0.947      0.947      0.0004505 
   1   122   1     0     9     9  0.947      0.947      0.0004505 
   1   123   1     0     3     3  0.947      0.947      0.0004505 
   1   124   1     0     2     2  0.948      0.948      0.0004505 
   1   125   1     0    11    11  0.949      0.949      0.0006757 
   1   126   1     0     4     4  0.949      0.949      0.0005068 
   1   127   1     0     4     4  0.950      0.950      0.0005068 
   1   128   1U    0     5     5  0.950      0.950      0.0007602 
   1   128   2     0     2     2  0.950      0.950      0.0001900 
   1   129   1     0     9     9  0.950      0.950      0.0002851 
   1   130   1     0     8     8  0.950      0.950      0.0002851 
   1   131   1     0     3     3  0.951      0.951      0.0002851 
   1   132   1     0     2     2  0.951      0.951      0.0002851 
   1   133   1     0     3     3  0.951      0.951      0.0004276 
   1   134   1     0     5     5  0.952      0.952      0.0006414 
   1   135   1U    0     4     4  0.952      0.952      0.0006414 
   1   135   2     0     2     2  0.952      0.952      0.0001603 
   1   136   1     0     2     2  0.952      0.952      0.0001603 
   1   137   1     0     3     3  0.953      0.953      0.0002405 
   1   138   1     0     4     4  0.953      0.953      0.0003608 
   1   139   1U    0     4     4  0.953      0.953      0.0005412 
   1   139   2     0     1     1  0.953      0.953      0.0001353 
   1   140   1     0     3     3  0.953      0.953      0.0002029 
   1   141   1     0     3     3  0.954      0.954      0.0003044 
   1   142   1     0    12    12  0.954      0.954      0.0004566 
   1   143   1     0     2     2  0.954      0.954      0.0003425 
   1   144   1     0     2     2  0.955      0.955      0.0003425 
   1   145   1     0     6     6  0.955      0.955      0.0005137 
   1   146   1U    0     5     5  0.955      0.955      0.0005137 
   1   146   2     0     1     1  0.955      0.955      0.0001284 
   1   147   1     0     1     1  0.956      0.956      0.0001284 
   1   148   1     0     2     2  0.956      0.956      0.0001926 
   1   149   1     0     3     3  0.956      0.956      0.0002890 
   1   150   1     0     3     3  0.956      0.956      0.0004334 
   1   151   1     0     4     4  0.957      0.957      0.0006501 
   1   152   1     0     5     5  0.958      0.958      0.0009752 
   1   153   1     0     8     8  0.959      0.959      0.0009752 
   1   154   1     0     7     7  0.960      0.960      0.0009752 
   1   155   1U    0     4     4  0.960      0.960      0.0009752 
   1   155   2     0     3     3  0.960      0.960      0.0002438 
   1   156   1     0     3     3  0.960      0.960      0.0002438 
   1   157   1     0     3     3  0.961      0.961      0.0003657 
   1   158   1     0     4     4  0.961      0.961      0.0005486 
   1   159   1U    0     7     7  0.961      0.961      0.0008228 
   1   159   2     0     1     1  0.962      0.962      0.0002057 
   1   160   1     0     1     1  0.962      0.962      0.0003086 
   1   161   1     0     3     3  0.962      0.962      0.0004629 
   1   162   1     0     2     2  0.963      0.963      0.0006943 
   1   163   1U    0     4     4  0.963      0.963      0.001041  
   1   163   2     0     4     4  0.963      0.963      0.0002604 
   1   164   1     0     3     3  0.964      0.964      0.0003905 
   1   165   1U    0     6     6  0.964      0.964      0.0005858 
   1   165   2     0     2     2  0.964      0.964      0.0001464 
   1   166   1     0     1     1  0.964      0.964      0.0002197 
   1   167   1     0     3     3  0.964      0.964      0.0003295 
   1   168   1     0     2     2  0.965      0.965      0.0004943 
   1   169   1     0     4     4  0.966      0.966      0.0007414 
   1   170   1     0     2     2  0.967      0.967      0.001112  
   1   171   1U    0     5     5  0.967      0.967      0.001668  
   1   171   2     0     5     5  0.967      0.967      0.0004170 
   1   172   1     0     8     8  0.968      0.968      0.0004170 
   1   173   1     0     2     2  0.968      0.968      0.0004170 
   1   174   1     0     3     3  0.968      0.968      0.0004170 
   1   175   1     0     2     2  0.969      0.969      0.0006256 
   1   176   1     0     3     3  0.970      0.970      0.0009383 
   1   177   1U    0     4     4  0.970      0.970      0.001407  
   1   177   2     0     2     2  0.970      0.970      0.0003519 
   1   178   1     0     5     5  0.971      0.971      0.0005278 
   1   179   1     0     3     3  0.971      0.971      0.0005278 
   1   180   1     0     1     1  0.972      0.972      0.0005278 
   1   181   1     0     4     4  0.973      0.973      0.0007917 
   1   182   1     0     8     8  0.974      0.974      0.001188  
   1   183   1U    0     4     4  0.974      0.974      0.001188  
   1   183   2U    0     5     5  0.974      0.974      0.0002969 
   1   183   3     0     2     2  0.974      0.974      7.422e-005
   1   184   1     0     1     1  0.974      0.974      7.422e-005
   1   185   1     0     1     1  0.974      0.974      0.0001113 
   1   186   1     0     1     1  0.974      0.974      0.0001670 
   1   187   1     0     1     1  0.975      0.975      0.0002505 
   1   188   1U    0     6     6  0.975      0.975      0.0003758 
   1   188   2     0     1     1  0.975      0.975      9.394e-005
   1   189   1     0     2     2  0.975      0.975      0.0001409 
   1   190   1     0     1     1  0.975      0.975      0.0002114 
   1   191   1     0     1     1  0.975      0.975      0.0003170 
   1   192   1     0     8     8  0.976      0.976      0.0004756 
   1   193   1     0     3     3  0.976      0.976      0.0004756 
   1   194   1     0     2     2  0.977      0.977      0.0004756 
   1   195   1     0     2     2  0.977      0.977      0.0007133 
   1   196   1     0     3     3  0.979      0.979      0.001070  
   1   197   1U    0     4     4  0.979      0.979      0.001605  
   1   197   2     0     6     6  0.979      0.979      0.0004013 
   1   198   1     0     2     2  0.979      0.979      0.0004013 
   1   199   1     0     1     1  0.980      0.980      0.0004013 
   1   200   1     0     3     3  0.980      0.980      0.0006019 
   1   201   1U    0     4     4  0.980      0.980      0.0009028 
   1   201   2     0     1     1  0.981      0.981      0.0002257 
   1   202   1     0     5     5  0.981      0.981      0.0003386 
   1   203   1     0     1     1  0.981      0.981      0.0003386 
   1   204   1     0     1     1  0.982      0.982      0.0003386 
   1   205   1     0     4     4  0.982      0.982      0.0005078 
   1   206   1     0     3     3  0.983      0.983      0.0007618 
   1   207   1U    0     4     4  0.983      0.983      0.001143  
   1   207   2     0     1     1  0.983      0.983      0.0002857 
   1   208   1     0     6     6  0.984      0.984      0.0004285 
   1   209   1     0     1     1  0.984      0.984      0.0004285 
   1   210   1     0     2     2  0.984      0.984      0.0004285 
   1   211   1U    0     4     4  0.984      0.984      0.0006427 
   1   211   2     0     1     1  0.985      0.985      0.0001607 
   1   212   1     0     1     1  0.985      0.985      0.0002410 
   1   213   1     0     2     2  0.985      0.985      0.0003615 
   1   214   1     0     3     3  0.986      0.986      0.0005423 
   1   215   1     0     2     2  0.987      0.987      0.0008135 
   1   216   1     0     2     2  0.988      0.988      0.001220  
   1   217   1U    0     4     4  0.988      0.988      0.001830  
   1   217   2     0     1     1  0.988      0.988      0.0004576 
   1   218   1     0     6     6  0.989      0.989      0.0006864 
   1   219   1     0     3     3  0.990      0.990      0.0006864 
   1   220   1     0     2     2  0.990      0.990      0.0006864 
   1   221   1     0     2     2  0.991      0.991      0.001030  
   1   222   1     0     9     9  0.993      0.993      0.001544  
   1   223   1     0     6     6  0.994      0.994      0.001544  
   1   224   1     0     2     2  0.996      0.996      0.001544  
   1   225   1     0     2     2  0.998      0.998      0.001544  
   1   226   1     0     2     2  1.00       1.00       0.002316  
   1   227   1     0     1     1  1.00       1.00       0.0001735 
                          
 THE ANALYSIS HAS COMPLETED SUCCESSFULLY
