 Abaqus/Standard 3DEXPERIENCE R2017x                  DATE 23-Apr-2019 TIME 14:17:34
 SUMMARY OF JOB INFORMATION:
 STEP  INC ATT SEVERE EQUIL TOTAL  TOTAL      STEP       INC OF       DOF    IF
               DISCON ITERS ITERS  TIME/    TIME/LPF    TIME/LPF    MONITOR RIKS
               ITERS               FREQ
   1     1   1     0     2     2  1.00e-005  1.00e-005  1.000e-005
   1     2   1     0     1     1  2.00e-005  2.00e-005  1.000e-005
   1     3   1     0     1     1  3.50e-005  3.50e-005  1.500e-005
   1     4   1     0     1     1  5.75e-005  5.75e-005  2.250e-005
   1     5   1     0     1     1  9.13e-005  9.13e-005  3.375e-005
   1     6   1     0     1     1  0.000142   0.000142   5.063e-005
   1     7   1     0     1     1  0.000218   0.000218   7.594e-005
   1     8   1     0     1     1  0.000332   0.000332   0.0001139 
   1     9   1     0     1     1  0.000503   0.000503   0.0001709 
   1    10   1     0     1     1  0.000759   0.000759   0.0002563 
   1    11   1     0     1     1  0.00114    0.00114    0.0003844 
   1    12   1     0     1     1  0.00172    0.00172    0.0005767 
   1    13   1     0     1     1  0.00258    0.00258    0.0008650 
   1    14   1     0     1     1  0.00388    0.00388    0.001297  
   1    15   1     0     1     1  0.00583    0.00583    0.001946  
   1    16   1     0     1     1  0.00875    0.00875    0.002919  
   1    17   1     0     1     1  0.0131     0.0131     0.004379  
   1    18   1     0     1     1  0.0197     0.0197     0.006568  
   1    19   1     0     1     1  0.0295     0.0295     0.009853  
   1    20   1     0     1     1  0.0443     0.0443     0.01478   
   1    21   1     0     1     1  0.0665     0.0665     0.02217   
   1    22   1     0     1     1  0.0997     0.0997     0.03325   
   1    23   1     0     2     2  0.150      0.150      0.04988   
   1    24   1     0     2     2  0.224      0.224      0.07482   
   1    25   1     0     3     3  0.337      0.337      0.1122    
   1    26   1     0     8     8  0.505      0.505      0.1683    
   1    27   1U    0     4     4  0.505      0.505      0.1683    
   1    27   2     0     4     4  0.547      0.547      0.04209   
   1    28   1     0     3     3  0.589      0.589      0.04209   
   1    29   1     0     4     4  0.652      0.652      0.06313   
   1    30   1U    0     4     4  0.652      0.652      0.09469   
   1    30   2     0     4     4  0.676      0.676      0.02367   
   1    31   1     0     3     3  0.711      0.711      0.03551   
   1    32   1U    0     7     7  0.711      0.711      0.05326   
   1    32   2     0     3     3  0.725      0.725      0.01332   
   1    33   1     0     2     2  0.745      0.745      0.01997   
   1    34   1U    0     4     4  0.745      0.745      0.02996   
   1    34   2     0     1     1  0.752      0.752      0.007490  
   1    35   1U    0     4     4  0.752      0.752      0.01124   
   1    35   2     0     1     1  0.755      0.755      0.002809  
   1    36   1     0     1     1  0.759      0.759      0.004213  
   1    37   1     0     2     2  0.766      0.766      0.006320  
   1    38   1     0     2     2  0.775      0.775      0.009480  
   1    39   1U    0     6     6  0.775      0.775      0.01422   
   1    39   2     0     1     1  0.779      0.779      0.003555  
   1    40   1     0     1     1  0.784      0.784      0.005332  
   1    41   1     0     1     1  0.792      0.792      0.007999  
   1    42   1     0     2     2  0.804      0.804      0.01200   
   1    43   1     0     4     4  0.822      0.822      0.01800   
   1    44   1U    0     4     4  0.822      0.822      0.02700   
   1    44   2     0     1     1  0.829      0.829      0.006749  
   1    45   1     0     2     2  0.839      0.839      0.01012   
   1    46   1     0     2     2  0.854      0.854      0.01518   
   1    47   1U    0     6     6  0.854      0.854      0.02278   
   1    47   2     0     2     2  0.860      0.860      0.005694  
   1    48   1     0     3     3  0.868      0.868      0.008542  
   1    49   1U    0     4     4  0.868      0.868      0.01281   
   1    49   2     0     1     1  0.871      0.871      0.003203  
   1    50   1     0     1     1  0.876      0.876      0.004805  
   1    51   1U    0     5     5  0.876      0.876      0.007207  
   1    51   2     0     1     1  0.878      0.878      0.001802  
   1    52   1     0     1     1  0.881      0.881      0.002703  
   1    53   1     0     1     1  0.885      0.885      0.004054  
   1    54   1     0     3     3  0.891      0.891      0.006081  
   1    55   1     0     1     1  0.900      0.900      0.009121  
   1    56   1     0     5     5  0.914      0.914      0.01368   
   1    57   1     0     3     3  0.927      0.927      0.01368   
   1    58   1     0     8     8  0.941      0.941      0.01368   
   1    59   1     0     2     2  0.955      0.955      0.01368   
   1    60   1     0     1     1  0.968      0.968      0.01368   
   1    61   1     0     2     2  0.989      0.989      0.02052   
   1    62   1     0     2     2  1.00       1.00       0.01103   
                          
 THE ANALYSIS HAS COMPLETED SUCCESSFULLY
