 Abaqus/Standard 3DEXPERIENCE R2017x                  DATE 22-Apr-2019 TIME 12:58:38
 SUMMARY OF JOB INFORMATION:
 STEP  INC ATT SEVERE EQUIL TOTAL  TOTAL      STEP       INC OF       DOF    IF
               DISCON ITERS ITERS  TIME/    TIME/LPF    TIME/LPF    MONITOR RIKS
               ITERS               FREQ
   1     1   1     0     2     2  1.00e-005  1.00e-005  1.000e-005
   1     2   1     0     1     1  2.00e-005  2.00e-005  1.000e-005
   1     3   1     0     1     1  3.50e-005  3.50e-005  1.500e-005
   1     4   1     0     1     1  5.75e-005  5.75e-005  2.250e-005
   1     5   1     0     1     1  9.13e-005  9.13e-005  3.375e-005
   1     6   1     0     1     1  0.000142   0.000142   5.063e-005
   1     7   1     0     1     1  0.000218   0.000218   7.594e-005
   1     8   1     0     1     1  0.000332   0.000332   0.0001139 
   1     9   1     0     1     1  0.000503   0.000503   0.0001709 
   1    10   1     0     1     1  0.000759   0.000759   0.0002563 
   1    11   1     0     1     1  0.00114    0.00114    0.0003844 
   1    12   1     0     1     1  0.00172    0.00172    0.0005767 
   1    13   1     0     1     1  0.00258    0.00258    0.0008650 
   1    14   1     0     1     1  0.00388    0.00388    0.001297  
   1    15   1     0     1     1  0.00583    0.00583    0.001946  
   1    16   1     0     1     1  0.00875    0.00875    0.002919  
   1    17   1     0     1     1  0.0131     0.0131     0.004379  
   1    18   1     0     1     1  0.0197     0.0197     0.006568  
   1    19   1     0     1     1  0.0295     0.0295     0.009853  
   1    20   1     0     1     1  0.0443     0.0443     0.01478   
   1    21   1     0     1     1  0.0665     0.0665     0.02217   
   1    22   1     0     1     1  0.0997     0.0997     0.03325   
   1    23   1     0     1     1  0.150      0.150      0.04988   
   1    24   1     0     1     1  0.224      0.224      0.07482   
   1    25   1     0     2     2  0.337      0.337      0.1122    
   1    26   1     0     2     2  0.505      0.505      0.1683    
   1    27   1     0     4     4  0.758      0.758      0.2525    
   1    28   1U    0     9     9  0.758      0.758      0.2425    
   1    28   2     0     3     3  0.818      0.818      0.06062   
   1    29   1U    0     5     5  0.818      0.818      0.09093   
   1    29   2U    0     5     5  0.818      0.818      0.02273   
   1    29   3     0     3     3  0.824      0.824      0.005683  
   1    30   1     0     2     2  0.832      0.832      0.008525  
   1    31   1U    0     5     5  0.832      0.832      0.01279   
   1    31   2     0     2     2  0.836      0.836      0.003197  
   1    32   1U    0     6     6  0.836      0.836      0.004795  
   1    32   2     0     1     1  0.837      0.837      0.001199  
   1    33   1U    0     7     7  0.837      0.837      0.001798  
   1    33   2     0     1     1  0.837      0.837      0.0004495 
   1    34   1     0     1     1  0.838      0.838      0.0006743 
   1    35   1     0     1     1  0.839      0.839      0.001011  
   1    36   1     0     1     1  0.840      0.840      0.001517  
   1    37   1U    0     4     4  0.840      0.840      0.002276  
   1    37   2     0     1     1  0.841      0.841      0.0005689 
   1    38   1     0     1     1  0.842      0.842      0.0008534 
   1    39   1     0     1     1  0.843      0.843      0.001280  
   1    40   1     0     1     1  0.845      0.845      0.001920  
   1    41   1U    0     4     4  0.845      0.845      0.002880  
   1    41   2     0     1     1  0.846      0.846      0.0007201 
   1    42   1     0     1     1  0.847      0.847      0.001080  
   1    43   1     0     1     1  0.848      0.848      0.001620  
   1    44   1U    0     9     9  0.848      0.848      0.002430  
   1    44   2     0     1     1  0.850      0.850      0.001215  
   1    45   1U    0     4     4  0.850      0.850      0.001823  
   1    45   2     0     1     1  0.850      0.850      0.0004557 
   1    46   1     0     1     1  0.851      0.851      0.0006835 
   1    47   1U    0     5     5  0.851      0.851      0.001025  
   1    47   2     0     1     1  0.851      0.851      0.0002563 
   1    48   1     0     1     1  0.851      0.851      0.0003845 
   1    49   1U    0     4     4  0.851      0.851      0.0005767 
   1    49   2     0     1     1  0.852      0.852      0.0001442 
   1    50   1     0     1     1  0.852      0.852      0.0002163 
   1    51   1     0     1     1  0.852      0.852      0.0003244 
   1    52   1     0     1     1  0.853      0.853      0.0004866 
   1    53   1     0     4     4  0.853      0.853      0.0007299 
   1    54   1U    0     5     5  0.853      0.853      0.001095  
   1    54   2     0     1     1  0.854      0.854      0.0002737 
   1    55   1     0     2     2  0.854      0.854      0.0004106 
   1    56   1     0     2     2  0.855      0.855      0.0006158 
   1    57   1U    0     5     5  0.855      0.855      0.0009238 
   1    57   2     0     1     1  0.855      0.855      0.0002309 
   1    58   1     0     1     1  0.855      0.855      0.0003464 
   1    59   1     0     2     2  0.856      0.856      0.0005196 
   1    60   1     0     8     8  0.857      0.857      0.0007794 
   1    61   1     0     3     3  0.857      0.857      0.0007794 
   1    62   1     0     4     4  0.858      0.858      0.0007794 
   1    63   1U    0     5     5  0.858      0.858      0.001169  
   1    63   2     0     1     1  0.858      0.858      0.0002923 
   1    64   1     0     1     1  0.859      0.859      0.0004384 
   1    65   1     0     9     9  0.859      0.859      0.0006576 
   1    66   1U    0     4     4  0.859      0.859      0.0006576 
   1    66   2     0     1     1  0.860      0.860      0.0001644 
   1    67   1     0     1     1  0.860      0.860      0.0001644 
   1    68   1     0     2     2  0.860      0.860      0.0002466 
   1    69   1     0     2     2  0.860      0.860      0.0003699 
   1    70   1     0     2     2  0.861      0.861      0.0005549 
   1    71   1     0     5     5  0.862      0.862      0.0008323 
   1    72   1U    0     4     4  0.862      0.862      0.0008323 
   1    72   2     0     1     1  0.862      0.862      0.0002081 
   1    73   1     0     2     2  0.862      0.862      0.0002081 
   1    74   1     0     2     2  0.863      0.863      0.0003121 
   1    75   1     0     1     1  0.863      0.863      0.0004682 
   1    76   1     0     8     8  0.864      0.864      0.0007023 
   1    77   1     0     7     7  0.864      0.864      0.0007023 
   1    78   1     0     2     2  0.865      0.865      0.0007023 
   1    79   1     0     7     7  0.866      0.866      0.0007023 
   1    80   1U    0     6     6  0.866      0.866      0.0007023 
   1    80   2     0     2     2  0.866      0.866      0.0001756 
   1    81   1     0     4     4  0.866      0.866      0.0001756 
   1    82   1     0     1     1  0.866      0.866      0.0002634 
   1    83   1     0     3     3  0.867      0.867      0.0003950 
   1    84   1     0     6     6  0.867      0.867      0.0005925 
   1    85   1     0     5     5  0.868      0.868      0.0005925 
   1    86   1     0     6     6  0.869      0.869      0.0005925 
   1    87   1     0     4     4  0.869      0.869      0.0005925 
   1    88   1     0     6     6  0.870      0.870      0.0005925 
   1    89   1U    0     9     9  0.870      0.870      0.0005925 
   1    89   2     0     2     2  0.870      0.870      0.0002963 
   1    90   1     0     6     6  0.870      0.870      0.0002963 
   1    91   1     0     3     3  0.871      0.871      0.0002963 
   1    92   1     0     4     4  0.871      0.871      0.0002963 
   1    93   1     0     2     2  0.871      0.871      0.0004444 
   1    94   1     0     2     2  0.872      0.872      0.0006666 
   1    95   1     0     4     4  0.873      0.873      0.0009999 
   1    96   1U    0     9     9  0.873      0.873      0.001500  
   1    96   2     0     3     3  0.874      0.874      0.0007499 
   1    97   1     0    10    10  0.875      0.875      0.001125  
   1    98   1     0    12    12  0.876      0.876      0.001125  
   1    99   1     0     2     2  0.877      0.877      0.0008437 
   1   100   1U    0     4     4  0.877      0.877      0.0008437 
   1   100   2     0     1     1  0.877      0.877      0.0002109 
   1   101   1     0     5     5  0.877      0.877      0.0003164 
   1   102   1     0     2     2  0.878      0.878      0.0003164 
   1   103   1     0     1     1  0.878      0.878      0.0003164 
   1   104   1     0     2     2  0.879      0.879      0.0004746 
   1   105   1     0     2     2  0.879      0.879      0.0007119 
   1   106   1     0     5     5  0.880      0.880      0.001068  
   1   107   1     0     4     4  0.881      0.881      0.001068  
   1   108   1     0     4     4  0.882      0.882      0.001068  
   1   109   1     0     3     3  0.884      0.884      0.001602  
   1   110   1     0    16    16  0.886      0.886      0.002403  
   1   111   1U    0     5     5  0.886      0.886      0.001802  
   1   111   2     0    10    10  0.887      0.887      0.0004505 
   1   112   1     0     5     5  0.887      0.887      0.0004505 
   1   113   1     0     3     3  0.888      0.888      0.0004505 
   1   114   1     0     3     3  0.888      0.888      0.0004505 
   1   115   1     0     2     2  0.889      0.889      0.0006757 
   1   116   1     0    10    10  0.890      0.890      0.001014  
   1   117   1     0     2     2  0.891      0.891      0.001014  
   1   118   1     0     6     6  0.892      0.892      0.001014  
   1   119   1     0     4     4  0.893      0.893      0.001014  
   1   120   1     0     8     8  0.894      0.894      0.001014  
   1   121   1     0     5     5  0.895      0.895      0.001014  
   1   122   1     0     6     6  0.896      0.896      0.001014  
   1   123   1     0     2     2  0.897      0.897      0.001014  
   1   124   1     0     2     2  0.898      0.898      0.001014  
   1   125   1     0    10    10  0.900      0.900      0.001520  
   1   126   1     0     6     6  0.901      0.901      0.001520  
   1   127   1     0     6     6  0.903      0.903      0.001520  
   1   128   1     0     6     6  0.904      0.904      0.001520  
   1   129   1     0     2     2  0.906      0.906      0.001520  
   1   130   1     0    12    12  0.907      0.907      0.001520  
   1   131   1     0     2     2  0.908      0.908      0.001140  
   1   132   1     0     2     2  0.909      0.909      0.001140  
   1   133   1     0     2     2  0.911      0.911      0.001710  
   1   134   1     0     3     3  0.914      0.914      0.002566  
   1   135   1U    0     5     5  0.914      0.914      0.003848  
   1   135   2     0     2     2  0.915      0.915      0.0009621 
   1   136   1     0     6     6  0.916      0.916      0.001443  
   1   137   1U    0     9     9  0.916      0.916      0.001443  
   1   137   2     0     2     2  0.917      0.917      0.0007216 
   1   138   1     0     6     6  0.918      0.918      0.0007216 
   1   139   1     0     2     2  0.918      0.918      0.0007216 
   1   140   1     0     2     2  0.919      0.919      0.0007216 
   1   141   1     0     3     3  0.920      0.920      0.001082  
   1   142   1     0     2     2  0.922      0.922      0.001624  
   1   143   1     0     4     4  0.924      0.924      0.002435  
   1   144   1     0     6     6  0.928      0.928      0.003653  
   1   145   1     0     3     3  0.931      0.931      0.003653  
   1   146   1     0    10    10  0.935      0.935      0.003653  
   1   147   1     0     2     2  0.939      0.939      0.003653  
   1   148   1U    0     6     6  0.939      0.939      0.003653  
   1   148   2     0     3     3  0.940      0.940      0.0009132 
   1   149   1     0     2     2  0.941      0.941      0.001370  
   1   150   1U    0     4     4  0.941      0.941      0.002055  
   1   150   2     0     3     3  0.942      0.942      0.0005137 
   1   151   1     0     1     1  0.942      0.942      0.0007705 
   1   152   1     0     2     2  0.944      0.944      0.001156  
   1   153   1     0     2     2  0.945      0.945      0.001734  
   1   154   1     0     2     2  0.948      0.948      0.002601  
   1   155   1     0     2     2  0.952      0.952      0.003901  
   1   156   1     0     2     2  0.958      0.958      0.005851  
   1   157   1U    0     4     4  0.958      0.958      0.008777  
   1   157   2     0     2     2  0.960      0.960      0.002194  
   1   158   1     0     8     8  0.963      0.963      0.003291  
   1   159   1U    0     4     4  0.963      0.963      0.003291  
   1   159   2     0     2     2  0.964      0.964      0.0008228 
   1   160   1     0     1     1  0.965      0.965      0.0008228 
   1   161   1     0     1     1  0.966      0.966      0.001234  
   1   162   1     0     2     2  0.968      0.968      0.001851  
   1   163   1     0     2     2  0.971      0.971      0.002777  
   1   164   1     0     3     3  0.975      0.975      0.004166  
   1   165   1U    0     4     4  0.975      0.975      0.006248  
   1   165   2     0     2     2  0.976      0.976      0.001562  
   1   166   1     0     2     2  0.979      0.979      0.002343  
   1   167   1U    0     4     4  0.979      0.979      0.003515  
   1   167   2     0     1     1  0.980      0.980      0.0008787 
   1   168   1     0     2     2  0.981      0.981      0.001318  
   1   169   1     0    10    10  0.983      0.983      0.001977  
   1   170   1     0     2     2  0.985      0.985      0.001977  
   1   171   1     0     2     2  0.987      0.987      0.001977  
   1   172   1     0     2     2  0.990      0.990      0.002966  
   1   173   1U    0     9     9  0.990      0.990      0.004448  
   1   173   2     0     2     2  0.992      0.992      0.002224  
   1   174   1U    0     4     4  0.992      0.992      0.003336  
   1   174   2     0     1     1  0.993      0.993      0.0008341 
   1   175   1     0     2     2  0.994      0.994      0.001251  
   1   176   1     0     5     5  0.996      0.996      0.001877  
   1   177   1U    0     4     4  0.996      0.996      0.001877  
   1   177   2     0     1     1  0.996      0.996      0.0004692 
   1   178   1     0     1     1  0.997      0.997      0.0004692 
   1   179   1     0     2     2  0.998      0.998      0.0007037 
   1   180   1     0     1     1  0.999      0.999      0.001056  
   1   181   1     0     2     2  1.00       1.00       0.001359  
                          
 THE ANALYSIS HAS COMPLETED SUCCESSFULLY
