 Abaqus/Standard 3DEXPERIENCE R2017x                  DATE 22-Apr-2019 TIME 17:59:44
 SUMMARY OF JOB INFORMATION:
 STEP  INC ATT SEVERE EQUIL TOTAL  TOTAL      STEP       INC OF       DOF    IF
               DISCON ITERS ITERS  TIME/    TIME/LPF    TIME/LPF    MONITOR RIKS
               ITERS               FREQ
   1     1   1     0     2     2  1.00e-005  1.00e-005  1.000e-005
   1     2   1     0     1     1  2.00e-005  2.00e-005  1.000e-005
   1     3   1     0     1     1  3.50e-005  3.50e-005  1.500e-005
   1     4   1     0     1     1  5.75e-005  5.75e-005  2.250e-005
   1     5   1     0     1     1  9.13e-005  9.13e-005  3.375e-005
   1     6   1     0     1     1  0.000142   0.000142   5.063e-005
   1     7   1     0     1     1  0.000218   0.000218   7.594e-005
   1     8   1     0     1     1  0.000332   0.000332   0.0001139 
   1     9   1     0     1     1  0.000503   0.000503   0.0001709 
   1    10   1     0     1     1  0.000759   0.000759   0.0002563 
   1    11   1     0     1     1  0.00114    0.00114    0.0003844 
   1    12   1     0     1     1  0.00172    0.00172    0.0005767 
   1    13   1     0     1     1  0.00258    0.00258    0.0008650 
   1    14   1     0     1     1  0.00388    0.00388    0.001297  
   1    15   1     0     1     1  0.00583    0.00583    0.001946  
   1    16   1     0     1     1  0.00875    0.00875    0.002919  
   1    17   1     0     1     1  0.0131     0.0131     0.004379  
   1    18   1     0     1     1  0.0197     0.0197     0.006568  
   1    19   1     0     1     1  0.0295     0.0295     0.009853  
   1    20   1     0     1     1  0.0443     0.0443     0.01478   
   1    21   1     0     1     1  0.0665     0.0665     0.02217   
   1    22   1     0     1     1  0.0997     0.0997     0.03325   
   1    23   1     0     1     1  0.150      0.150      0.04988   
   1    24   1     0     1     1  0.224      0.224      0.07482   
   1    25   1     0     1     1  0.337      0.337      0.1122    
   1    26   1     0     2     2  0.505      0.505      0.1683    
   1    27   1     0     4     4  0.758      0.758      0.2525    
   1    28   1U    0     4     4  0.758      0.758      0.2425    
   1    28   2U    0     8     8  0.758      0.758      0.06062   
   1    28   3     0     3     3  0.773      0.773      0.01515   
   1    29   1     0     2     2  0.795      0.795      0.02273   
   1    30   1U    0     4     4  0.795      0.795      0.03410   
   1    30   2     0     2     2  0.804      0.804      0.008525  
   1    31   1U    0     4     4  0.804      0.804      0.01279   
   1    31   2     0     1     1  0.807      0.807      0.003197  
   1    32   1     0     1     1  0.812      0.812      0.004795  
   1    33   1U    0     4     4  0.812      0.812      0.007193  
   1    33   2     0     1     1  0.814      0.814      0.001798  
   1    34   1     0     1     1  0.816      0.816      0.002697  
   1    35   1     0     1     1  0.820      0.820      0.004046  
   1    36   1     0     1     1  0.827      0.827      0.006069  
   1    37   1     0     3     3  0.836      0.836      0.009103  
   1    38   1     0     3     3  0.849      0.849      0.01365   
   1    39   1     0     3     3  0.870      0.870      0.02048   
   1    40   1     0     2     2  0.901      0.901      0.03072   
   1    41   1     0     3     3  0.947      0.947      0.04608   
   1    42   1     0     3     3  1.00       1.00       0.05342   
                          
 THE ANALYSIS HAS COMPLETED SUCCESSFULLY
