 Abaqus/Standard 3DEXPERIENCE R2017x                  DATE 19-Apr-2019 TIME 18:44:28
 SUMMARY OF JOB INFORMATION:
 STEP  INC ATT SEVERE EQUIL TOTAL  TOTAL      STEP       INC OF       DOF    IF
               DISCON ITERS ITERS  TIME/    TIME/LPF    TIME/LPF    MONITOR RIKS
               ITERS               FREQ
   1     1   1     0     2     2  1.00e-005  1.00e-005  1.000e-005
   1     2   1     0     1     1  2.00e-005  2.00e-005  1.000e-005
   1     3   1     0     1     1  3.50e-005  3.50e-005  1.500e-005
   1     4   1     0     1     1  5.75e-005  5.75e-005  2.250e-005
   1     5   1     0     1     1  9.13e-005  9.13e-005  3.375e-005
   1     6   1     0     1     1  0.000142   0.000142   5.063e-005
   1     7   1     0     1     1  0.000218   0.000218   7.594e-005
   1     8   1     0     1     1  0.000332   0.000332   0.0001139 
   1     9   1     0     1     1  0.000503   0.000503   0.0001709 
   1    10   1     0     1     1  0.000759   0.000759   0.0002563 
   1    11   1     0     1     1  0.00114    0.00114    0.0003844 
   1    12   1     0     1     1  0.00172    0.00172    0.0005767 
   1    13   1     0     1     1  0.00258    0.00258    0.0008650 
   1    14   1     0     1     1  0.00388    0.00388    0.001297  
   1    15   1     0     1     1  0.00583    0.00583    0.001946  
   1    16   1     0     1     1  0.00875    0.00875    0.002919  
   1    17   1     0     1     1  0.0131     0.0131     0.004379  
   1    18   1     0     1     1  0.0197     0.0197     0.006568  
   1    19   1     0     1     1  0.0295     0.0295     0.009853  
   1    20   1     0     1     1  0.0443     0.0443     0.01478   
   1    21   1     0     1     1  0.0665     0.0665     0.02217   
   1    22   1     0     1     1  0.0997     0.0997     0.03325   
   1    23   1     0     1     1  0.150      0.150      0.04988   
   1    24   1     0     1     1  0.224      0.224      0.07482   
   1    25   1     0     2     2  0.337      0.337      0.1122    
   1    26   1     0     2     2  0.505      0.505      0.1683    
   1    27   1U    0     4     4  0.505      0.505      0.2525    
   1    27   2     0     2     2  0.568      0.568      0.06313   
   1    28   1     0     4     4  0.663      0.663      0.09469   
   1    29   1U    0     4     4  0.663      0.663      0.1420    
   1    29   2     0     3     3  0.698      0.698      0.03551   
   1    30   1U    0     4     4  0.698      0.698      0.05326   
   1    30   2     0     2     2  0.712      0.712      0.01332   
   1    31   1U    0     4     4  0.712      0.712      0.01997   
   1    31   2U    0     4     4  0.712      0.712      0.004994  
   1    31   3     0     2     2  0.713      0.713      0.001248  
   1    32   1     0     1     1  0.715      0.715      0.001873  
   1    33   1     0     1     1  0.718      0.718      0.002809  
   1    34   1U    0     4     4  0.718      0.718      0.004213  
   1    34   2     0     1     1  0.719      0.719      0.001053  
   1    35   1     0     1     1  0.720      0.720      0.001580  
   1    36   1U    0     4     4  0.720      0.720      0.002370  
   1    36   2     0     1     1  0.721      0.721      0.0005925 
   1    37   1     0     1     1  0.722      0.722      0.0008887 
   1    38   1     0     2     2  0.723      0.723      0.001333  
   1    39   1U    0     4     4  0.723      0.723      0.002000  
   1    39   2     0     2     2  0.724      0.724      0.0004999 
   1    40   1     0     1     1  0.724      0.724      0.0007499 
   1    41   1     0     1     1  0.725      0.725      0.001125  
   1    42   1     0     1     1  0.727      0.727      0.001687  
   1    43   1U    0     5     5  0.727      0.727      0.002531  
   1    43   2     0     1     1  0.728      0.728      0.0006327 
   1    44   1     0     1     1  0.729      0.729      0.0009491 
   1    45   1     0     2     2  0.730      0.730      0.001424  
   1    46   1     0     3     3  0.732      0.732      0.002135  
   1    47   1     0     5     5  0.735      0.735      0.003203  
   1    48   1     0     3     3  0.739      0.739      0.003203  
   1    49   1     0     3     3  0.742      0.742      0.003203  
   1    50   1     0     4     4  0.747      0.747      0.004805  
   1    51   1     0     5     5  0.754      0.754      0.007207  
   1    52   1     0     5     5  0.761      0.761      0.007207  
   1    53   1     0     4     4  0.768      0.768      0.007207  
   1    54   1U    0     4     4  0.768      0.768      0.007207  
   1    54   2     0     2     2  0.770      0.770      0.001802  
   1    55   1     0     4     4  0.773      0.773      0.002703  
   1    56   1     0     3     3  0.777      0.777      0.004054  
   1    57   1     0     4     4  0.783      0.783      0.006081  
   1    58   1     0     4     4  0.792      0.792      0.009121  
   1    59   1     0     5     5  0.806      0.806      0.01368   
   1    60   1     0     4     4  0.819      0.819      0.01368   
   1    61   1     0     4     4  0.833      0.833      0.01368   
   1    62   1     0     4     4  0.854      0.854      0.02052   
   1    63   1     0     4     4  0.884      0.884      0.03078   
   1    64   1     0     4     4  0.931      0.931      0.04618   
   1    65   1     0     5     5  1.00       1.00       0.06926   
   1    66   1     0     1     1  1.00       1.00       0.0001730 
                          
 THE ANALYSIS HAS COMPLETED SUCCESSFULLY
