 Abaqus/Standard 3DEXPERIENCE R2017x                  DATE 22-Apr-2019 TIME 15:12:31
 SUMMARY OF JOB INFORMATION:
 STEP  INC ATT SEVERE EQUIL TOTAL  TOTAL      STEP       INC OF       DOF    IF
               DISCON ITERS ITERS  TIME/    TIME/LPF    TIME/LPF    MONITOR RIKS
               ITERS               FREQ
   1     1   1     0     2     2  1.00e-005  1.00e-005  1.000e-005
   1     2   1     0     1     1  2.00e-005  2.00e-005  1.000e-005
   1     3   1     0     1     1  3.50e-005  3.50e-005  1.500e-005
   1     4   1     0     1     1  5.75e-005  5.75e-005  2.250e-005
   1     5   1     0     1     1  9.13e-005  9.13e-005  3.375e-005
   1     6   1     0     1     1  0.000142   0.000142   5.063e-005
   1     7   1     0     1     1  0.000218   0.000218   7.594e-005
   1     8   1     0     1     1  0.000332   0.000332   0.0001139 
   1     9   1     0     1     1  0.000503   0.000503   0.0001709 
   1    10   1     0     1     1  0.000759   0.000759   0.0002563 
   1    11   1     0     1     1  0.00114    0.00114    0.0003844 
   1    12   1     0     1     1  0.00172    0.00172    0.0005767 
   1    13   1     0     1     1  0.00258    0.00258    0.0008650 
   1    14   1     0     1     1  0.00388    0.00388    0.001297  
   1    15   1     0     1     1  0.00583    0.00583    0.001946  
   1    16   1     0     1     1  0.00875    0.00875    0.002919  
   1    17   1     0     1     1  0.0131     0.0131     0.004379  
   1    18   1     0     1     1  0.0197     0.0197     0.006568  
   1    19   1     0     1     1  0.0295     0.0295     0.009853  
   1    20   1     0     1     1  0.0443     0.0443     0.01478   
   1    21   1     0     1     1  0.0665     0.0665     0.02217   
   1    22   1     0     1     1  0.0997     0.0997     0.03325   
   1    23   1     0     1     1  0.150      0.150      0.04988   
   1    24   1     0     1     1  0.224      0.224      0.07482   
   1    25   1     0     1     1  0.337      0.337      0.1122    
   1    26   1     0     2     2  0.505      0.505      0.1683    
   1    27   1     0     2     2  0.758      0.758      0.2525    
   1    28   1U    0     4     4  0.758      0.758      0.2425    
   1    28   2     0     2     2  0.818      0.818      0.06062   
   1    29   1     0     3     3  0.909      0.909      0.09093   
   1    30   1U    0     4     4  0.909      0.909      0.09093   
   1    30   2     0     2     2  0.932      0.932      0.02273   
   1    31   1     0     3     3  0.966      0.966      0.03410   
   1    32   1U    0     4     4  0.966      0.966      0.03410   
   1    32   2     0     2     2  0.974      0.974      0.008525  
   1    33   1U    0     5     5  0.974      0.974      0.01279   
   1    33   2U    0     4     4  0.974      0.974      0.003197  
   1    33   3     0     2     2  0.975      0.975      0.0007992 
   1    34   1     0     1     1  0.976      0.976      0.001199  
   1    35   1     0     1     1  0.978      0.978      0.001798  
   1    36   1U    0     4     4  0.978      0.978      0.002697  
   1    36   2     0     1     1  0.979      0.979      0.0006743 
   1    37   1     0     1     1  0.980      0.980      0.001011  
   1    38   1     0     1     1  0.981      0.981      0.001517  
   1    39   1U    0     4     4  0.981      0.981      0.002276  
   1    39   2     0     1     1  0.982      0.982      0.0005689 
   1    40   1     0     1     1  0.983      0.983      0.0008534 
   1    41   1     0     1     1  0.984      0.984      0.001280  
   1    42   1U    0     4     4  0.984      0.984      0.001920  
   1    42   2     0     1     1  0.985      0.985      0.0004800 
   1    43   1     0     1     1  0.985      0.985      0.0007201 
   1    44   1U    0     6     6  0.985      0.985      0.001080  
   1    44   2     0     1     1  0.986      0.986      0.0002700 
   1    45   1     0     1     1  0.986      0.986      0.0004050 
   1    46   1     0     1     1  0.987      0.987      0.0006076 
   1    47   1     0     2     2  0.988      0.988      0.0009113 
   1    48   1     0     3     3  0.989      0.989      0.001367  
   1    49   1U    0    10    10  0.989      0.989      0.002051  
   1    49   2     0     2     2  0.990      0.990      0.001025  
   1    50   1     0     3     3  0.991      0.991      0.001538  
   1    51   1     0    11    11  0.994      0.994      0.002307  
   1    52   1     0     6     6  0.995      0.995      0.001730  
   1    53   1     0     4     4  0.997      0.997      0.001730  
   1    54   1     0     4     4  0.999      0.999      0.001730  
   1    55   1     0     3     3  1.00       1.00       0.001051  
                          
 THE ANALYSIS HAS COMPLETED SUCCESSFULLY
