 Abaqus/Standard 3DEXPERIENCE R2017x                  DATE 21-Apr-2019 TIME 22:56:29
 SUMMARY OF JOB INFORMATION:
 STEP  INC ATT SEVERE EQUIL TOTAL  TOTAL      STEP       INC OF       DOF    IF
               DISCON ITERS ITERS  TIME/    TIME/LPF    TIME/LPF    MONITOR RIKS
               ITERS               FREQ
   1     1   1     0     2     2  1.00e-005  1.00e-005  1.000e-005
   1     2   1     0     1     1  2.00e-005  2.00e-005  1.000e-005
   1     3   1     0     1     1  3.50e-005  3.50e-005  1.500e-005
   1     4   1     0     1     1  5.75e-005  5.75e-005  2.250e-005
   1     5   1     0     1     1  9.13e-005  9.13e-005  3.375e-005
   1     6   1     0     1     1  0.000142   0.000142   5.063e-005
   1     7   1     0     1     1  0.000218   0.000218   7.594e-005
   1     8   1     0     1     1  0.000332   0.000332   0.0001139 
   1     9   1     0     1     1  0.000503   0.000503   0.0001709 
   1    10   1     0     1     1  0.000759   0.000759   0.0002563 
   1    11   1     0     1     1  0.00114    0.00114    0.0003844 
   1    12   1     0     1     1  0.00172    0.00172    0.0005767 
   1    13   1     0     1     1  0.00258    0.00258    0.0008650 
   1    14   1     0     1     1  0.00388    0.00388    0.001297  
   1    15   1     0     1     1  0.00583    0.00583    0.001946  
   1    16   1     0     1     1  0.00875    0.00875    0.002919  
   1    17   1     0     1     1  0.0131     0.0131     0.004379  
   1    18   1     0     1     1  0.0197     0.0197     0.006568  
   1    19   1     0     1     1  0.0295     0.0295     0.009853  
   1    20   1     0     1     1  0.0443     0.0443     0.01478   
   1    21   1     0     1     1  0.0665     0.0665     0.02217   
   1    22   1     0     1     1  0.0997     0.0997     0.03325   
   1    23   1     0     1     1  0.150      0.150      0.04988   
   1    24   1     0     1     1  0.224      0.224      0.07482   
   1    25   1     0     2     2  0.337      0.337      0.1122    
   1    26   1     0     2     2  0.505      0.505      0.1683    
   1    27   1     0     5     5  0.758      0.758      0.2525    
   1    28   1U    0     4     4  0.758      0.758      0.2425    
   1    28   2     0     3     3  0.818      0.818      0.06062   
   1    29   1     0     3     3  0.879      0.879      0.06062   
   1    30   1U    0     5     5  0.879      0.879      0.09093   
   1    30   2U    0     4     4  0.879      0.879      0.02273   
   1    30   3     0     3     3  0.884      0.884      0.005683  
   1    31   1     0     1     1  0.893      0.893      0.008525  
   1    32   1     0     2     2  0.906      0.906      0.01279   
   1    33   1U    0     6     6  0.906      0.906      0.01918   
   1    33   2     0     1     1  0.911      0.911      0.004795  
   1    34   1     0     1     1  0.918      0.918      0.007193  
   1    35   1U    0     4     4  0.918      0.918      0.01079   
   1    35   2     0     1     1  0.920      0.920      0.002697  
   1    36   1     0     1     1  0.924      0.924      0.004046  
   1    37   1U    0     4     4  0.924      0.924      0.006069  
   1    37   2     0     1     1  0.926      0.926      0.001517  
   1    38   1     0     3     3  0.928      0.928      0.002276  
   1    39   1U    0     7     7  0.928      0.928      0.003414  
   1    39   2     0     1     1  0.929      0.929      0.0008534 
   1    40   1     0     1     1  0.930      0.930      0.001280  
   1    41   1     0     2     2  0.932      0.932      0.001920  
   1    42   1     0     5     5  0.935      0.935      0.002880  
   1    43   1     0     3     3  0.938      0.938      0.002880  
   1    44   1     0     2     2  0.941      0.941      0.002880  
   1    45   1     0     2     2  0.945      0.945      0.004320  
   1    46   1     0     3     3  0.952      0.952      0.006481  
   1    47   1     0     3     3  0.961      0.961      0.009721  
   1    48   1     0     3     3  0.976      0.976      0.01458   
   1    49   1     0     3     3  0.998      0.998      0.02187   
   1    50   1     0     1     1  1.00       1.00       0.002050  
                          
 THE ANALYSIS HAS COMPLETED SUCCESSFULLY
