 Abaqus/Standard 3DEXPERIENCE R2017x                  DATE 19-Apr-2019 TIME 19:03:09
 SUMMARY OF JOB INFORMATION:
 STEP  INC ATT SEVERE EQUIL TOTAL  TOTAL      STEP       INC OF       DOF    IF
               DISCON ITERS ITERS  TIME/    TIME/LPF    TIME/LPF    MONITOR RIKS
               ITERS               FREQ
   1     1   1     0     2     2  1.00e-005  1.00e-005  1.000e-005
   1     2   1     0     1     1  2.00e-005  2.00e-005  1.000e-005
   1     3   1     0     1     1  3.50e-005  3.50e-005  1.500e-005
   1     4   1     0     1     1  5.75e-005  5.75e-005  2.250e-005
   1     5   1     0     1     1  9.13e-005  9.13e-005  3.375e-005
   1     6   1     0     1     1  0.000142   0.000142   5.063e-005
   1     7   1     0     1     1  0.000218   0.000218   7.594e-005
   1     8   1     0     1     1  0.000332   0.000332   0.0001139 
   1     9   1     0     1     1  0.000503   0.000503   0.0001709 
   1    10   1     0     1     1  0.000759   0.000759   0.0002563 
   1    11   1     0     1     1  0.00114    0.00114    0.0003844 
   1    12   1     0     1     1  0.00172    0.00172    0.0005767 
   1    13   1     0     1     1  0.00258    0.00258    0.0008650 
   1    14   1     0     1     1  0.00388    0.00388    0.001297  
   1    15   1     0     1     1  0.00583    0.00583    0.001946  
   1    16   1     0     1     1  0.00875    0.00875    0.002919  
   1    17   1     0     1     1  0.0131     0.0131     0.004379  
   1    18   1     0     1     1  0.0197     0.0197     0.006568  
   1    19   1     0     1     1  0.0295     0.0295     0.009853  
   1    20   1     0     1     1  0.0443     0.0443     0.01478   
   1    21   1     0     1     1  0.0665     0.0665     0.02217   
   1    22   1     0     1     1  0.0997     0.0997     0.03325   
   1    23   1     0     1     1  0.150      0.150      0.04988   
   1    24   1     0     1     1  0.224      0.224      0.07482   
   1    25   1     0     2     2  0.337      0.337      0.1122    
   1    26   1     0     4     4  0.505      0.505      0.1683    
   1    27   1U    0     4     4  0.505      0.505      0.2525    
   1    27   2     0     4     4  0.568      0.568      0.06313   
   1    28   1     0     4     4  0.663      0.663      0.09469   
   1    29   1     0     4     4  0.805      0.805      0.1420    
   1    30   1U    0     6     6  0.805      0.805      0.1951    
   1    30   2U    0     5     5  0.805      0.805      0.04878   
   1    30   3U    0     4     4  0.805      0.805      0.01220   
   1    30   4     0     2     2  0.808      0.808      0.003049  
   1    31   1     0     2     2  0.812      0.812      0.004573  
   1    32   1     0     1     1  0.819      0.819      0.006860  
   1    33   1     0     2     2  0.830      0.830      0.01029   
   1    34   1U    0     4     4  0.830      0.830      0.01544   
   1    34   2     0     1     1  0.834      0.834      0.003859  
   1    35   1U    0     4     4  0.834      0.834      0.005788  
   1    35   2     0     1     1  0.835      0.835      0.001447  
   1    36   1     0     1     1  0.837      0.837      0.002171  
   1    37   1     0     1     1  0.840      0.840      0.003256  
   1    38   1U    0     4     4  0.840      0.840      0.004884  
   1    38   2     0     1     1  0.842      0.842      0.001221  
   1    39   1     0     1     1  0.843      0.843      0.001831  
   1    40   1U    0     4     4  0.843      0.843      0.002747  
   1    40   2     0     1     1  0.844      0.844      0.0006868 
   1    41   1     0     1     1  0.845      0.845      0.001030  
   1    42   1     0     1     1  0.847      0.847      0.001545  
   1    43   1     0     2     2  0.849      0.849      0.002318  
   1    44   1     0     2     2  0.852      0.852      0.003477  
   1    45   1     0     3     3  0.858      0.858      0.005215  
   1    46   1     0     4     4  0.866      0.866      0.007823  
   1    47   1     0     4     4  0.877      0.877      0.01173   
   1    48   1     0     4     4  0.895      0.895      0.01760   
   1    49   1     0     3     3  0.921      0.921      0.02640   
   1    50   1     0     3     3  0.961      0.961      0.03960   
   1    51   1     0     3     3  1.00       1.00       0.03914   
                          
 THE ANALYSIS HAS COMPLETED SUCCESSFULLY
