 Abaqus/Standard 3DEXPERIENCE R2017x                  DATE 22-Apr-2019 TIME 14:02:55
 SUMMARY OF JOB INFORMATION:
 STEP  INC ATT SEVERE EQUIL TOTAL  TOTAL      STEP       INC OF       DOF    IF
               DISCON ITERS ITERS  TIME/    TIME/LPF    TIME/LPF    MONITOR RIKS
               ITERS               FREQ
   1     1   1     0     2     2  1.00e-005  1.00e-005  1.000e-005
   1     2   1     0     1     1  2.00e-005  2.00e-005  1.000e-005
   1     3   1     0     1     1  3.50e-005  3.50e-005  1.500e-005
   1     4   1     0     1     1  5.75e-005  5.75e-005  2.250e-005
   1     5   1     0     1     1  9.13e-005  9.13e-005  3.375e-005
   1     6   1     0     1     1  0.000142   0.000142   5.063e-005
   1     7   1     0     1     1  0.000218   0.000218   7.594e-005
   1     8   1     0     1     1  0.000332   0.000332   0.0001139 
   1     9   1     0     1     1  0.000503   0.000503   0.0001709 
   1    10   1     0     1     1  0.000759   0.000759   0.0002563 
   1    11   1     0     1     1  0.00114    0.00114    0.0003844 
   1    12   1     0     1     1  0.00172    0.00172    0.0005767 
   1    13   1     0     1     1  0.00258    0.00258    0.0008650 
   1    14   1     0     1     1  0.00388    0.00388    0.001297  
   1    15   1     0     1     1  0.00583    0.00583    0.001946  
   1    16   1     0     1     1  0.00875    0.00875    0.002919  
   1    17   1     0     1     1  0.0131     0.0131     0.004379  
   1    18   1     0     1     1  0.0197     0.0197     0.006568  
   1    19   1     0     1     1  0.0295     0.0295     0.009853  
   1    20   1     0     1     1  0.0443     0.0443     0.01478   
   1    21   1     0     1     1  0.0665     0.0665     0.02217   
   1    22   1     0     1     1  0.0997     0.0997     0.03325   
   1    23   1     0     1     1  0.150      0.150      0.04988   
   1    24   1     0     1     1  0.224      0.224      0.07482   
   1    25   1     0     2     2  0.337      0.337      0.1122    
   1    26   1     0     2     2  0.505      0.505      0.1683    
   1    27   1     0     3     3  0.758      0.758      0.2525    
   1    28   1U    0     4     4  0.758      0.758      0.2425    
   1    28   2     0     3     3  0.818      0.818      0.06062   
   1    29   1U    0     4     4  0.818      0.818      0.09093   
   1    29   2U    0     5     5  0.818      0.818      0.02273   
   1    29   3     0     3     3  0.824      0.824      0.005683  
   1    30   1U    0     4     4  0.824      0.824      0.008525  
   1    30   2     0     1     1  0.826      0.826      0.002131  
   1    31   1U    0     6     6  0.826      0.826      0.003197  
   1    31   2     0     1     1  0.827      0.827      0.0007992 
   1    32   1     0     1     1  0.828      0.828      0.001199  
   1    33   1     0     1     1  0.830      0.830      0.001798  
   1    34   1     0     1     1  0.832      0.832      0.002697  
   1    35   1     0     1     1  0.836      0.836      0.004046  
   1    36   1U    0     4     4  0.836      0.836      0.006069  
   1    36   2     0     1     1  0.838      0.838      0.001517  
   1    37   1U    0     4     4  0.838      0.838      0.002276  
   1    37   2     0     1     1  0.839      0.839      0.0005689 
   1    38   1     0     1     1  0.839      0.839      0.0008534 
   1    39   1     0     1     1  0.841      0.841      0.001280  
   1    40   1U    0     4     4  0.841      0.841      0.001920  
   1    40   2     0     1     1  0.841      0.841      0.0004800 
   1    41   1     0     3     3  0.842      0.842      0.0007201 
   1    42   1U    0     5     5  0.842      0.842      0.001080  
   1    42   2     0     1     1  0.842      0.842      0.0002700 
   1    43   1     0     1     1  0.843      0.843      0.0004050 
   1    44   1     0     1     1  0.843      0.843      0.0006076 
   1    45   1     0     5     5  0.844      0.844      0.0009113 
   1    46   1U    0     5     5  0.844      0.844      0.0009113 
   1    46   2     0     1     1  0.844      0.844      0.0002278 
   1    47   1     0     1     1  0.845      0.845      0.0002278 
   1    48   1     0     2     2  0.845      0.845      0.0003418 
   1    49   1     0     2     2  0.845      0.845      0.0005126 
   1    50   1U    0     4     4  0.845      0.845      0.0007689 
   1    50   2     0     1     1  0.846      0.846      0.0001922 
   1    51   1     0     1     1  0.846      0.846      0.0002884 
   1    52   1     0     2     2  0.846      0.846      0.0004325 
   1    53   1U    0     4     4  0.846      0.846      0.0006488 
   1    53   2     0     1     1  0.846      0.846      0.0001622 
   1    54   1     0     1     1  0.847      0.847      0.0002433 
   1    55   1     0     1     1  0.847      0.847      0.0003649 
   1    56   1     0     2     2  0.848      0.848      0.0005474 
   1    57   1     0     7     7  0.848      0.848      0.0008211 
   1    58   1U    0     4     4  0.848      0.848      0.0008211 
   1    58   2     0     1     1  0.849      0.849      0.0002053 
   1    59   1     0     1     1  0.849      0.849      0.0002053 
   1    60   1     0     2     2  0.849      0.849      0.0003079 
   1    61   1     0     1     1  0.850      0.850      0.0004619 
   1    62   1U    0     7     7  0.850      0.850      0.0006928 
   1    62   2     0     1     1  0.850      0.850      0.0001732 
   1    63   1     0     1     1  0.850      0.850      0.0002598 
   1    64   1     0     1     1  0.850      0.850      0.0003897 
   1    65   1     0     4     4  0.851      0.851      0.0005846 
   1    66   1U    0     4     4  0.851      0.851      0.0008769 
   1    66   2     0     1     1  0.851      0.851      0.0002192 
   1    67   1     0     1     1  0.852      0.852      0.0003288 
   1    68   1U    0     4     4  0.852      0.852      0.0004932 
   1    68   2     0     1     1  0.852      0.852      0.0001233 
   1    69   1     0     1     1  0.852      0.852      0.0001850 
   1    70   1     0     1     1  0.852      0.852      0.0002774 
   1    71   1     0     2     2  0.853      0.853      0.0004162 
   1    72   1     0     5     5  0.853      0.853      0.0006242 
   1    73   1     0     8     8  0.854      0.854      0.0006242 
   1    74   1U    0     4     4  0.854      0.854      0.0006242 
   1    74   2     0     3     3  0.854      0.854      0.0001561 
   1    75   1     0     2     2  0.854      0.854      0.0001561 
   1    76   1     0     4     4  0.854      0.854      0.0002341 
   1    77   1     0     2     2  0.855      0.855      0.0003511 
   1    78   1     0    10    10  0.855      0.855      0.0005267 
   1    79   1     0     3     3  0.856      0.856      0.0005267 
   1    80   1     0     3     3  0.856      0.856      0.0005267 
   1    81   1U    0     9     9  0.856      0.856      0.0007901 
   1    81   2     0     4     4  0.857      0.857      0.0003950 
   1    82   1     0    11    11  0.857      0.857      0.0005925 
   1    83   1     0     4     4  0.858      0.858      0.0004444 
   1    84   1     0     2     2  0.858      0.858      0.0004444 
   1    85   1     0    10    10  0.859      0.859      0.0006666 
   1    86   1     0     4     4  0.860      0.860      0.0006666 
   1    87   1     0    10    10  0.860      0.860      0.0006666 
   1    88   1     0     4     4  0.861      0.861      0.0006666 
   1    89   1     0     5     5  0.862      0.862      0.0006666 
   1    90   1     0     4     4  0.862      0.862      0.0006666 
   1    91   1     0     6     6  0.863      0.863      0.0006666 
   1    92   1     0     3     3  0.864      0.864      0.0006666 
   1    93   1U    0     9     9  0.864      0.864      0.0006666 
   1    93   2     0     5     5  0.864      0.864      0.0003333 
   1    94   1     0     2     2  0.864      0.864      0.0003333 
   1    95   1     0     2     2  0.865      0.865      0.0003333 
   1    96   1     0     3     3  0.865      0.865      0.0005000 
   1    97   1     0     3     3  0.866      0.866      0.0007499 
   1    98   1     0     3     3  0.867      0.867      0.001125  
   1    99   1     0    16    16  0.869      0.869      0.001687  
   1   100   1     0    10    10  0.870      0.870      0.001266  
   1   101   1     0     5     5  0.871      0.871      0.001266  
   1   102   1     0     7     7  0.872      0.872      0.001266  
   1   103   1U    0     4     4  0.872      0.872      0.001266  
   1   103   2     0     1     1  0.873      0.873      0.0003164 
   1   104   1     0     2     2  0.873      0.873      0.0003164 
   1   105   1     0     5     5  0.874      0.874      0.0004746 
   1   106   1     0     3     3  0.874      0.874      0.0004746 
   1   107   1     0     2     2  0.874      0.874      0.0004746 
   1   108   1U    0     9     9  0.874      0.874      0.0007119 
   1   108   2     0     3     3  0.875      0.875      0.0003559 
   1   109   1     0     9     9  0.875      0.875      0.0005339 
   1   110   1     0     4     4  0.876      0.876      0.0005339 
   1   111   1     0     3     3  0.876      0.876      0.0005339 
   1   112   1     0     3     3  0.877      0.877      0.0008008 
   1   113   1     0     4     4  0.878      0.878      0.001201  
   1   114   1U    0     5     5  0.878      0.878      0.001802  
   1   114   2     0     2     2  0.879      0.879      0.0004505 
   1   115   1     0     2     2  0.880      0.880      0.0006757 
   1   116   1U    0     4     4  0.880      0.880      0.001014  
   1   116   2     0     2     2  0.880      0.880      0.0002534 
   1   117   1     0     2     2  0.880      0.880      0.0003801 
   1   118   1     0     2     2  0.881      0.881      0.0005701 
   1   119   1     0     2     2  0.882      0.882      0.0008552 
   1   120   1     0     4     4  0.883      0.883      0.001283  
   1   121   1U    0     4     4  0.883      0.883      0.001924  
   1   121   2     0     3     3  0.883      0.883      0.0004810 
   1   122   1     0     2     2  0.884      0.884      0.0007216 
   1   123   1U    0     5     5  0.884      0.884      0.001082  
   1   123   2     0     1     1  0.884      0.884      0.0002706 
   1   124   1     0     1     1  0.885      0.885      0.0004059 
   1   125   1     0     2     2  0.885      0.885      0.0006088 
   1   126   1     0     2     2  0.886      0.886      0.0009132 
   1   127   1     0     6     6  0.888      0.888      0.001370  
   1   128   1     0     2     2  0.889      0.889      0.001370  
   1   129   1     0     2     2  0.890      0.890      0.001370  
   1   130   1     0     2     2  0.892      0.892      0.002055  
   1   131   1U    0     5     5  0.892      0.892      0.003082  
   1   131   2     0     2     2  0.893      0.893      0.0007705 
   1   132   1U    0     4     4  0.893      0.893      0.001156  
   1   132   2     0     1     1  0.894      0.894      0.0002890 
   1   133   1     0     5     5  0.894      0.894      0.0004334 
   1   134   1     0     1     1  0.894      0.894      0.0004334 
   1   135   1     0     1     1  0.895      0.895      0.0004334 
   1   136   1     0     2     2  0.895      0.895      0.0006501 
   1   137   1     0     2     2  0.896      0.896      0.0009752 
   1   138   1     0     2     2  0.898      0.898      0.001463  
   1   139   1     0    10    10  0.900      0.900      0.002194  
   1   140   1U    0     4     4  0.900      0.900      0.002194  
   1   140   2     0     2     2  0.901      0.901      0.0005486 
   1   141   1     0     2     2  0.901      0.901      0.0005486 
   1   142   1     0     2     2  0.902      0.902      0.0008228 
   1   143   1     0     2     2  0.903      0.903      0.001234  
   1   144   1     0    10    10  0.905      0.905      0.001851  
   1   145   1     0     3     3  0.907      0.907      0.001851  
   1   146   1U    0     4     4  0.907      0.907      0.001851  
   1   146   2     0     1     1  0.907      0.907      0.0004629 
   1   147   1     0     5     5  0.908      0.908      0.0006943 
   1   148   1     0     2     2  0.909      0.909      0.0006943 
   1   149   1     0     2     2  0.909      0.909      0.0006943 
   1   150   1     0     2     2  0.911      0.911      0.001041  
   1   151   1U    0     9     9  0.911      0.911      0.001562  
   1   151   2     0     3     3  0.911      0.911      0.0007811 
   1   152   1     0     2     2  0.912      0.912      0.001172  
   1   153   1U    0     9     9  0.912      0.912      0.001757  
   1   153   2     0     2     2  0.913      0.913      0.0004393 
   1   154   1     0     1     1  0.914      0.914      0.0006590 
   1   155   1     0     3     3  0.915      0.915      0.0009885 
   1   156   1U    0     4     4  0.915      0.915      0.001483  
   1   156   2     0     1     1  0.915      0.915      0.0003707 
   1   157   1     0     2     2  0.916      0.916      0.0005560 
   1   158   1     0     2     2  0.916      0.916      0.0008341 
   1   159   1     0    10    10  0.918      0.918      0.001251  
   1   160   1     0     7     7  0.919      0.919      0.001251  
   1   161   1U    0     5     5  0.919      0.919      0.001251  
   1   161   2     0     1     1  0.919      0.919      0.0003128 
   1   162   1     0     1     1  0.919      0.919      0.0003128 
   1   163   1     0     2     2  0.920      0.920      0.0004692 
   1   164   1     0     3     3  0.921      0.921      0.0007037 
   1   165   1     0    11    11  0.922      0.922      0.001056  
   1   166   1     0     4     4  0.922      0.922      0.0007917 
   1   167   1     0     3     3  0.923      0.923      0.0007917 
   1   168   1U    0     4     4  0.923      0.923      0.001188  
   1   168   2     0     1     1  0.924      0.924      0.0002969 
   1   169   1     0     2     2  0.924      0.924      0.0004453 
   1   170   1     0     2     2  0.925      0.925      0.0006680 
   1   171   1     0    10    10  0.926      0.926      0.001002  
   1   172   1U    0     9     9  0.926      0.926      0.001002  
   1   172   2     0     2     2  0.926      0.926      0.0005010 
   1   173   1     0     3     3  0.927      0.927      0.0005010 
   1   174   1     0     3     3  0.927      0.927      0.0007515 
   1   175   1U    0     8     8  0.927      0.927      0.001127  
   1   175   2     0     2     2  0.928      0.928      0.0002818 
   1   176   1     0     3     3  0.928      0.928      0.0004227 
   1   177   1     0     3     3  0.929      0.929      0.0006341 
   1   178   1U    0     8     8  0.929      0.929      0.0009511 
   1   178   2     0     1     1  0.929      0.929      0.0002378 
   1   179   1     0     2     2  0.929      0.929      0.0003567 
   1   180   1     0     3     3  0.930      0.930      0.0005350 
   1   181   1U    0     8     8  0.930      0.930      0.0008025 
   1   181   2     0     1     1  0.930      0.930      0.0002006 
   1   182   1     0     2     2  0.930      0.930      0.0003009 
   1   183   1     0     3     3  0.931      0.931      0.0004514 
   1   184   1U    0     4     4  0.931      0.931      0.0006771 
   1   184   2     0     1     1  0.931      0.931      0.0001693 
   1   185   1     0     1     1  0.931      0.931      0.0002539 
   1   186   1     0     2     2  0.932      0.932      0.0003809 
   1   187   1     0     3     3  0.932      0.932      0.0005713 
   1   188   1     0    10    10  0.933      0.933      0.0008570 
   1   189   1U    0     9     9  0.933      0.933      0.0008570 
   1   189   2     0     3     3  0.934      0.934      0.0004285 
   1   190   1     0     3     3  0.934      0.934      0.0004285 
   1   191   1     0     6     6  0.935      0.935      0.0006427 
   1   192   1     0     4     4  0.935      0.935      0.0006427 
   1   193   1     0     4     4  0.936      0.936      0.0006427 
   1   194   1     0    10    10  0.937      0.937      0.0009641 
   1   195   1U    0     7     7  0.937      0.937      0.0009641 
   1   195   2     0     2     2  0.937      0.937      0.0002410 
   1   196   1     0     2     2  0.937      0.937      0.0002410 
   1   197   1     0     1     1  0.938      0.938      0.0003615 
   1   198   1     0     3     3  0.938      0.938      0.0005423 
   1   199   1     0     8     8  0.939      0.939      0.0008135 
   1   200   1     0     2     2  0.940      0.940      0.0008135 
   1   201   1     0    14    14  0.941      0.941      0.0008135 
   1   202   1     0     2     2  0.941      0.941      0.0006101 
   1   203   1     0     8     8  0.942      0.942      0.0006101 
   1   204   1     0     2     2  0.943      0.943      0.0006101 
   1   205   1     0     3     3  0.943      0.943      0.0006101 
   1   206   1     0    11    11  0.944      0.944      0.0009151 
   1   207   1     0     7     7  0.945      0.945      0.0006864 
   1   208   1     0     2     2  0.945      0.945      0.0006864 
   1   209   1     0     8     8  0.946      0.946      0.0006864 
   1   210   1     0     7     7  0.947      0.947      0.0006864 
   1   211   1     0     2     2  0.947      0.947      0.0006864 
   1   212   1U    0     4     4  0.947      0.947      0.0006864 
   1   212   2     0     2     2  0.948      0.948      0.0001716 
   1   213   1     0     1     1  0.948      0.948      0.0002574 
   1   214   1     0     5     5  0.948      0.948      0.0003861 
   1   215   1     0     2     2  0.949      0.949      0.0003861 
   1   216   1     0     2     2  0.949      0.949      0.0003861 
   1   217   1     0     2     2  0.950      0.950      0.0005791 
   1   218   1     0     2     2  0.950      0.950      0.0008687 
   1   219   1U    0     7     7  0.950      0.950      0.001303  
   1   219   2     0     4     4  0.951      0.951      0.0003258 
   1   220   1     0     2     2  0.951      0.951      0.0004886 
   1   221   1     0     5     5  0.952      0.952      0.0007329 
   1   222   1U    0     9     9  0.952      0.952      0.0007329 
   1   222   2     0     4     4  0.952      0.952      0.0003665 
   1   223   1     0     2     2  0.953      0.953      0.0003665 
   1   224   1     0     2     2  0.953      0.953      0.0005497 
   1   225   1     0     2     2  0.954      0.954      0.0008246 
   1   226   1     0     4     4  0.955      0.955      0.001237  
   1   227   1U    0     4     4  0.955      0.955      0.001855  
   1   227   2     0     1     1  0.956      0.956      0.0004638 
   1   228   1U    0     4     4  0.956      0.956      0.0006957 
   1   228   2     0     1     1  0.956      0.956      0.0001739 
   1   229   1     0     1     1  0.956      0.956      0.0002609 
   1   230   1     0     1     1  0.957      0.957      0.0003913 
   1   231   1     0     2     2  0.957      0.957      0.0005870 
   1   232   1     0     2     2  0.958      0.958      0.0008805 
   1   233   1     0     5     5  0.959      0.959      0.001321  
   1   234   1U    0     6     6  0.959      0.959      0.001321  
   1   234   2     0     3     3  0.960      0.960      0.0003302 
   1   235   1     0     1     1  0.960      0.960      0.0003302 
   1   236   1     0     2     2  0.961      0.961      0.0004953 
   1   237   1     0     2     2  0.961      0.961      0.0007429 
   1   238   1     0     4     4  0.962      0.962      0.001114  
   1   239   1U    0     8     8  0.962      0.962      0.001672  
   1   239   2     0     1     1  0.963      0.963      0.0004179 
   1   240   1     0     2     2  0.964      0.964      0.0006269 
   1   241   1U    0     4     4  0.964      0.964      0.0009403 
   1   241   2     0     1     1  0.964      0.964      0.0002351 
   1   242   1     0     5     5  0.964      0.964      0.0003526 
   1   243   1     0     1     1  0.964      0.964      0.0003526 
   1   244   1     0     1     1  0.965      0.965      0.0003526 
   1   245   1     0     2     2  0.965      0.965      0.0005289 
   1   246   1     0     2     2  0.966      0.966      0.0007934 
   1   247   1     0     3     3  0.967      0.967      0.001190  
   1   248   1     0     3     3  0.969      0.969      0.001785  
   1   249   1U    0     6     6  0.969      0.969      0.002678  
   1   249   2     0     2     2  0.970      0.970      0.0006694 
   1   250   1     0     7     7  0.971      0.971      0.001004  
   1   251   1     0     2     2  0.972      0.972      0.001004  
   1   252   1     0     2     2  0.973      0.973      0.001004  
   1   253   1     0     3     3  0.974      0.974      0.001506  
   1   254   1U    0     5     5  0.974      0.974      0.002259  
   1   254   2     0     1     1  0.975      0.975      0.0005648 
   1   255   1     0     2     2  0.976      0.976      0.0008472 
   1   256   1U    0     4     4  0.976      0.976      0.001271  
   1   256   2     0     1     1  0.976      0.976      0.0003177 
   1   257   1     0     1     1  0.977      0.977      0.0004766 
   1   258   1     0     2     2  0.977      0.977      0.0007148 
   1   259   1     0     2     2  0.978      0.978      0.001072  
   1   260   1     0     4     4  0.980      0.980      0.001608  
   1   261   1U    0     4     4  0.980      0.980      0.002413  
   1   261   2     0    14    14  0.981      0.981      0.0006031 
   1   262   1     0     1     1  0.981      0.981      0.0004524 
   1   263   1     0     1     1  0.981      0.981      0.0004524 
   1   264   1     0     2     2  0.982      0.982      0.0006785 
   1   265   1     0     2     2  0.983      0.983      0.001018  
   1   266   1U    0     5     5  0.983      0.983      0.001527  
   1   266   2     0     3     3  0.983      0.983      0.0003817 
   1   267   1     0     3     3  0.984      0.984      0.0005725 
   1   268   1     0     4     4  0.985      0.985      0.0008588 
   1   269   1     0     3     3  0.986      0.986      0.001288  
   1   270   1U    0     9     9  0.986      0.986      0.001932  
   1   270   2     0     5     5  0.987      0.987      0.0009661 
   1   271   1     0     2     2  0.988      0.988      0.0009661 
   1   272   1     0     2     2  0.989      0.989      0.0009661 
   1   273   1U    0     5     5  0.989      0.989      0.001449  
   1   273   2     0     1     1  0.989      0.989      0.0003623 
   1   274   1     0    10    10  0.990      0.990      0.0005434 
   1   275   1     0     2     2  0.991      0.991      0.0005434 
   1   276   1     0     2     2  0.991      0.991      0.0005434 
   1   277   1     0     2     2  0.992      0.992      0.0008152 
   1   278   1     0     2     2  0.993      0.993      0.001223  
   1   279   1     0     2     2  0.995      0.995      0.001834  
   1   280   1     0     6     6  0.998      0.998      0.002751  
   1   281   1     0     6     6  1.00       1.00       0.002275  
                          
 THE ANALYSIS HAS COMPLETED SUCCESSFULLY
