 Abaqus/Standard 3DEXPERIENCE R2017x                  DATE 22-Apr-2019 TIME 19:04:21
 SUMMARY OF JOB INFORMATION:
 STEP  INC ATT SEVERE EQUIL TOTAL  TOTAL      STEP       INC OF       DOF    IF
               DISCON ITERS ITERS  TIME/    TIME/LPF    TIME/LPF    MONITOR RIKS
               ITERS               FREQ
   1     1   1     0     2     2  1.00e-005  1.00e-005  1.000e-005
   1     2   1     0     1     1  2.00e-005  2.00e-005  1.000e-005
   1     3   1     0     1     1  3.50e-005  3.50e-005  1.500e-005
   1     4   1     0     1     1  5.75e-005  5.75e-005  2.250e-005
   1     5   1     0     1     1  9.13e-005  9.13e-005  3.375e-005
   1     6   1     0     1     1  0.000142   0.000142   5.063e-005
   1     7   1     0     1     1  0.000218   0.000218   7.594e-005
   1     8   1     0     1     1  0.000332   0.000332   0.0001139 
   1     9   1     0     1     1  0.000503   0.000503   0.0001709 
   1    10   1     0     1     1  0.000759   0.000759   0.0002563 
   1    11   1     0     1     1  0.00114    0.00114    0.0003844 
   1    12   1     0     1     1  0.00172    0.00172    0.0005767 
   1    13   1     0     1     1  0.00258    0.00258    0.0008650 
   1    14   1     0     1     1  0.00388    0.00388    0.001297  
   1    15   1     0     1     1  0.00583    0.00583    0.001946  
   1    16   1     0     1     1  0.00875    0.00875    0.002919  
   1    17   1     0     1     1  0.0131     0.0131     0.004379  
   1    18   1     0     1     1  0.0197     0.0197     0.006568  
   1    19   1     0     1     1  0.0295     0.0295     0.009853  
   1    20   1     0     1     1  0.0443     0.0443     0.01478   
   1    21   1     0     1     1  0.0665     0.0665     0.02217   
   1    22   1     0     1     1  0.0997     0.0997     0.03325   
   1    23   1     0     1     1  0.150      0.150      0.04988   
   1    24   1     0     1     1  0.224      0.224      0.07482   
   1    25   1     0     2     2  0.337      0.337      0.1122    
   1    26   1     0     2     2  0.505      0.505      0.1683    
   1    27   1     0     6     6  0.758      0.758      0.2525    
   1    28   1U    0     7     7  0.758      0.758      0.2425    
   1    28   2U    0     9     9  0.758      0.758      0.06062   
   1    28   3     0     3     3  0.788      0.788      0.03031   
   1    29   1     0     3     3  0.818      0.818      0.03031   
   1    30   1U    0     4     4  0.818      0.818      0.04546   
   1    30   2     0     2     2  0.830      0.830      0.01137   
   1    31   1U    0     8     8  0.830      0.830      0.01705   
   1    31   2     0     1     1  0.834      0.834      0.004262  
   1    32   1     0     1     1  0.840      0.840      0.006393  
   1    33   1     0     2     2  0.850      0.850      0.009590  
   1    34   1     0     8     8  0.864      0.864      0.01439   
   1    35   1     0     6     6  0.879      0.879      0.01439   
   1    36   1     0     3     3  0.893      0.893      0.01439   
   1    37   1     0     3     3  0.907      0.907      0.01439   
   1    38   1     0     3     3  0.929      0.929      0.02158   
   1    39   1     0     3     3  0.961      0.961      0.03237   
   1    40   1     0     3     3  1.00       1.00       0.03876   
                          
 THE ANALYSIS HAS COMPLETED SUCCESSFULLY
