 Abaqus/Standard 3DEXPERIENCE R2017x                  DATE 22-Apr-2019 TIME 15:55:43
 SUMMARY OF JOB INFORMATION:
 STEP  INC ATT SEVERE EQUIL TOTAL  TOTAL      STEP       INC OF       DOF    IF
               DISCON ITERS ITERS  TIME/    TIME/LPF    TIME/LPF    MONITOR RIKS
               ITERS               FREQ
   1     1   1     0     2     2  1.00e-005  1.00e-005  1.000e-005
   1     2   1     0     1     1  2.00e-005  2.00e-005  1.000e-005
   1     3   1     0     1     1  3.50e-005  3.50e-005  1.500e-005
   1     4   1     0     1     1  5.75e-005  5.75e-005  2.250e-005
   1     5   1     0     1     1  9.13e-005  9.13e-005  3.375e-005
   1     6   1     0     1     1  0.000142   0.000142   5.063e-005
   1     7   1     0     1     1  0.000218   0.000218   7.594e-005
   1     8   1     0     1     1  0.000332   0.000332   0.0001139 
   1     9   1     0     1     1  0.000503   0.000503   0.0001709 
   1    10   1     0     1     1  0.000759   0.000759   0.0002563 
   1    11   1     0     1     1  0.00114    0.00114    0.0003844 
   1    12   1     0     1     1  0.00172    0.00172    0.0005767 
   1    13   1     0     1     1  0.00258    0.00258    0.0008650 
   1    14   1     0     1     1  0.00388    0.00388    0.001297  
   1    15   1     0     1     1  0.00583    0.00583    0.001946  
   1    16   1     0     1     1  0.00875    0.00875    0.002919  
   1    17   1     0     1     1  0.0131     0.0131     0.004379  
   1    18   1     0     1     1  0.0197     0.0197     0.006568  
   1    19   1     0     1     1  0.0295     0.0295     0.009853  
   1    20   1     0     1     1  0.0443     0.0443     0.01478   
   1    21   1     0     1     1  0.0665     0.0665     0.02217   
   1    22   1     0     1     1  0.0997     0.0997     0.03325   
   1    23   1     0     1     1  0.150      0.150      0.04988   
   1    24   1     0     1     1  0.224      0.224      0.07482   
   1    25   1     0     2     2  0.337      0.337      0.1122    
   1    26   1     0     2     2  0.505      0.505      0.1683    
   1    27   1U    0     4     4  0.505      0.505      0.2525    
   1    27   2     0     2     2  0.568      0.568      0.06313   
   1    28   1     0     3     3  0.663      0.663      0.09469   
   1    29   1U    0     4     4  0.663      0.663      0.1420    
   1    29   2     0     3     3  0.698      0.698      0.03551   
   1    30   1     0     3     3  0.752      0.752      0.05326   
   1    31   1U    0     4     4  0.752      0.752      0.07990   
   1    31   2U    0     5     5  0.752      0.752      0.01997   
   1    31   3     0     3     3  0.757      0.757      0.004994  
   1    32   1U    0     4     4  0.757      0.757      0.007490  
   1    32   2     0     1     1  0.758      0.758      0.001873  
   1    33   1     0     1     1  0.761      0.761      0.002809  
   1    34   1U    0     4     4  0.761      0.761      0.004213  
   1    34   2     0     1     1  0.762      0.762      0.001053  
   1    35   1     0     1     1  0.764      0.764      0.001580  
   1    36   1     0     1     1  0.766      0.766      0.002370  
   1    37   1     0     1     1  0.770      0.770      0.003555  
   1    38   1U    0     7     7  0.770      0.770      0.005332  
   1    38   2     0     1     1  0.771      0.771      0.001333  
   1    39   1     0     1     1  0.773      0.773      0.002000  
   1    40   1U    0     4     4  0.773      0.773      0.002999  
   1    40   2     0     1     1  0.774      0.774      0.0007499 
   1    41   1     0     1     1  0.775      0.775      0.001125  
   1    42   1U    0     5     5  0.775      0.775      0.001687  
   1    42   2     0     1     1  0.775      0.775      0.0004218 
   1    43   1     0     1     1  0.776      0.776      0.0006327 
   1    44   1     0     1     1  0.777      0.777      0.0009491 
   1    45   1     0     2     2  0.778      0.778      0.001424  
   1    46   1U    0     5     5  0.778      0.778      0.002135  
   1    46   2     0     1     1  0.779      0.779      0.0005338 
   1    47   1     0     2     2  0.780      0.780      0.0008008 
   1    48   1     0     1     1  0.781      0.781      0.001201  
   1    49   1     0     3     3  0.783      0.783      0.001802  
   1    50   1     0     6     6  0.786      0.786      0.002703  
   1    51   1     0     6     6  0.788      0.788      0.002703  
   1    52   1     0     3     3  0.791      0.791      0.002703  
   1    53   1     0     8     8  0.794      0.794      0.002703  
   1    54   1     0     4     4  0.796      0.796      0.002703  
   1    55   1     0     3     3  0.799      0.799      0.002703  
   1    56   1     0     4     4  0.803      0.803      0.004054  
   1    57   1     0     5     5  0.809      0.809      0.006081  
   1    58   1     0     8     8  0.815      0.815      0.006081  
   1    59   1     0     5     5  0.821      0.821      0.006081  
   1    60   1     0     5     5  0.827      0.827      0.006081  
   1    61   1     0     5     5  0.833      0.833      0.006081  
   1    62   1     0     4     4  0.840      0.840      0.006081  
   1    63   1     0     3     3  0.846      0.846      0.006081  
   1    64   1     0     4     4  0.855      0.855      0.009121  
   1    65   1     0     5     5  0.868      0.868      0.01368   
   1    66   1     0     5     5  0.882      0.882      0.01368   
   1    67   1     0     4     4  0.896      0.896      0.01368   
   1    68   1     0     4     4  0.909      0.909      0.01368   
   1    69   1U    0     5     5  0.909      0.909      0.02052   
   1    69   2     0     3     3  0.915      0.915      0.005131  
   1    70   1     0     3     3  0.922      0.922      0.007696  
   1    71   1U    0     4     4  0.922      0.922      0.01154   
   1    71   2U    0     4     4  0.922      0.922      0.002886  
   1    71   3     0     3     3  0.923      0.923      0.0007215 
   1    72   1     0     1     1  0.924      0.924      0.001082  
   1    73   1     0     2     2  0.926      0.926      0.001623  
   1    74   1     0     2     2  0.928      0.928      0.002435  
   1    75   1     0     2     2  0.932      0.932      0.003653  
   1    76   1     0     3     3  0.937      0.937      0.005479  
   1    77   1     0     3     3  0.946      0.946      0.008218  
   1    78   1     0     3     3  0.958      0.958      0.01233   
   1    79   1     0     4     4  0.976      0.976      0.01849   
   1    80   1     0     5     5  1.00       1.00       0.02365   
                          
 THE ANALYSIS HAS COMPLETED SUCCESSFULLY
