 Abaqus/Standard 3DEXPERIENCE R2017x                  DATE 22-Apr-2019 TIME 16:28:38
 SUMMARY OF JOB INFORMATION:
 STEP  INC ATT SEVERE EQUIL TOTAL  TOTAL      STEP       INC OF       DOF    IF
               DISCON ITERS ITERS  TIME/    TIME/LPF    TIME/LPF    MONITOR RIKS
               ITERS               FREQ
   1     1   1     0     2     2  1.00e-005  1.00e-005  1.000e-005
   1     2   1     0     1     1  2.00e-005  2.00e-005  1.000e-005
   1     3   1     0     1     1  3.50e-005  3.50e-005  1.500e-005
   1     4   1     0     1     1  5.75e-005  5.75e-005  2.250e-005
   1     5   1     0     1     1  9.13e-005  9.13e-005  3.375e-005
   1     6   1     0     1     1  0.000142   0.000142   5.063e-005
   1     7   1     0     1     1  0.000218   0.000218   7.594e-005
   1     8   1     0     1     1  0.000332   0.000332   0.0001139 
   1     9   1     0     1     1  0.000503   0.000503   0.0001709 
   1    10   1     0     1     1  0.000759   0.000759   0.0002563 
   1    11   1     0     1     1  0.00114    0.00114    0.0003844 
   1    12   1     0     1     1  0.00172    0.00172    0.0005767 
   1    13   1     0     1     1  0.00258    0.00258    0.0008650 
   1    14   1     0     1     1  0.00388    0.00388    0.001297  
   1    15   1     0     1     1  0.00583    0.00583    0.001946  
   1    16   1     0     1     1  0.00875    0.00875    0.002919  
   1    17   1     0     1     1  0.0131     0.0131     0.004379  
   1    18   1     0     1     1  0.0197     0.0197     0.006568  
   1    19   1     0     1     1  0.0295     0.0295     0.009853  
   1    20   1     0     1     1  0.0443     0.0443     0.01478   
   1    21   1     0     1     1  0.0665     0.0665     0.02217   
   1    22   1     0     1     1  0.0997     0.0997     0.03325   
   1    23   1     0     1     1  0.150      0.150      0.04988   
   1    24   1     0     1     1  0.224      0.224      0.07482   
   1    25   1     0     1     1  0.337      0.337      0.1122    
   1    26   1     0     2     2  0.505      0.505      0.1683    
   1    27   1     0     3     3  0.758      0.758      0.2525    
   1    28   1U    0     4     4  0.758      0.758      0.2425    
   1    28   2     0     4     4  0.818      0.818      0.06062   
   1    29   1U    0     4     4  0.818      0.818      0.09093   
   1    29   2U    0     4     4  0.818      0.818      0.02273   
   1    29   3     0     3     3  0.824      0.824      0.005683  
   1    30   1     0     2     2  0.832      0.832      0.008525  
   1    31   1U    0     5     5  0.832      0.832      0.01279   
   1    31   2     0     1     1  0.836      0.836      0.003197  
   1    32   1     0     1     1  0.840      0.840      0.004795  
   1    33   1U    0     4     4  0.840      0.840      0.007193  
   1    33   2     0     1     1  0.842      0.842      0.001798  
   1    34   1     0     1     1  0.845      0.845      0.002697  
   1    35   1     0     1     1  0.849      0.849      0.004046  
   1    36   1U    0     4     4  0.849      0.849      0.006069  
   1    36   2     0     1     1  0.850      0.850      0.001517  
   1    37   1     0     2     2  0.853      0.853      0.002276  
   1    38   1U    0     4     4  0.853      0.853      0.003414  
   1    38   2     0     1     1  0.854      0.854      0.0008534 
   1    39   1     0     1     1  0.855      0.855      0.001280  
   1    40   1U    0     4     4  0.855      0.855      0.001920  
   1    40   2     0     1     1  0.855      0.855      0.0004800 
   1    41   1     0     1     1  0.856      0.856      0.0007201 
   1    42   1     0     1     1  0.857      0.857      0.001080  
   1    43   1     0     4     4  0.859      0.859      0.001620  
   1    44   1U    0     8     8  0.859      0.859      0.002430  
   1    44   2     0     2     2  0.859      0.859      0.0006076 
   1    45   1     0     2     2  0.860      0.860      0.0009113 
   1    46   1     0     4     4  0.862      0.862      0.001367  
   1    47   1     0     3     3  0.864      0.864      0.002051  
   1    48   1     0     5     5  0.867      0.867      0.003076  
   1    49   1     0     4     4  0.870      0.870      0.003076  
   1    50   1     0     3     3  0.873      0.873      0.003076  
   1    51   1U    0     9     9  0.873      0.873      0.004614  
   1    51   2     0     3     3  0.875      0.875      0.002307  
   1    52   1U    0     5     5  0.875      0.875      0.003460  
   1    52   2     0     8     8  0.876      0.876      0.0008651 
   1    53   1     0     2     2  0.877      0.877      0.0008651 
   1    54   1     0     2     2  0.878      0.878      0.0008651 
   1    55   1     0    12    12  0.879      0.879      0.001298  
   1    56   1     0     2     2  0.880      0.880      0.0009732 
   1    57   1     0     2     2  0.881      0.881      0.0009732 
   1    58   1     0     4     4  0.882      0.882      0.001460  
   1    59   1     0     3     3  0.885      0.885      0.002190  
   1    60   1     0     3     3  0.888      0.888      0.003285  
   1    61   1     0     4     4  0.893      0.893      0.004927  
   1    62   1     0     5     5  0.900      0.900      0.007390  
   1    63   1     0     4     4  0.908      0.908      0.007390  
   1    64   1     0     4     4  0.915      0.915      0.007390  
   1    65   1     0     5     5  0.926      0.926      0.01109   
   1    66   1     0     4     4  0.937      0.937      0.01109   
   1    67   1     0     5     5  0.948      0.948      0.01109   
   1    68   1     0     4     4  0.959      0.959      0.01109   
   1    69   1     0     5     5  0.970      0.970      0.01109   
   1    70   1     0     3     3  0.982      0.982      0.01109   
   1    71   1     0     3     3  0.993      0.993      0.01109   
   1    72   1     0     2     2  1.00       1.00       0.007352  
                          
 THE ANALYSIS HAS COMPLETED SUCCESSFULLY
