 Abaqus/Standard 3DEXPERIENCE R2017x                  DATE 22-Apr-2019 TIME 17:53:01
 SUMMARY OF JOB INFORMATION:
 STEP  INC ATT SEVERE EQUIL TOTAL  TOTAL      STEP       INC OF       DOF    IF
               DISCON ITERS ITERS  TIME/    TIME/LPF    TIME/LPF    MONITOR RIKS
               ITERS               FREQ
   1     1   1     0     2     2  1.00e-005  1.00e-005  1.000e-005
   1     2   1     0     1     1  2.00e-005  2.00e-005  1.000e-005
   1     3   1     0     1     1  3.50e-005  3.50e-005  1.500e-005
   1     4   1     0     1     1  5.75e-005  5.75e-005  2.250e-005
   1     5   1     0     1     1  9.13e-005  9.13e-005  3.375e-005
   1     6   1     0     1     1  0.000142   0.000142   5.063e-005
   1     7   1     0     1     1  0.000218   0.000218   7.594e-005
   1     8   1     0     1     1  0.000332   0.000332   0.0001139 
   1     9   1     0     1     1  0.000503   0.000503   0.0001709 
   1    10   1     0     1     1  0.000759   0.000759   0.0002563 
   1    11   1     0     1     1  0.00114    0.00114    0.0003844 
   1    12   1     0     1     1  0.00172    0.00172    0.0005767 
   1    13   1     0     1     1  0.00258    0.00258    0.0008650 
   1    14   1     0     1     1  0.00388    0.00388    0.001297  
   1    15   1     0     1     1  0.00583    0.00583    0.001946  
   1    16   1     0     1     1  0.00875    0.00875    0.002919  
   1    17   1     0     1     1  0.0131     0.0131     0.004379  
   1    18   1     0     1     1  0.0197     0.0197     0.006568  
   1    19   1     0     1     1  0.0295     0.0295     0.009853  
   1    20   1     0     1     1  0.0443     0.0443     0.01478   
   1    21   1     0     1     1  0.0665     0.0665     0.02217   
   1    22   1     0     1     1  0.0997     0.0997     0.03325   
   1    23   1     0     1     1  0.150      0.150      0.04988   
   1    24   1     0     1     1  0.224      0.224      0.07482   
   1    25   1     0     1     1  0.337      0.337      0.1122    
   1    26   1     0     2     2  0.505      0.505      0.1683    
   1    27   1     0     4     4  0.758      0.758      0.2525    
   1    28   1U    0     6     6  0.758      0.758      0.2425    
   1    28   2     0     3     3  0.818      0.818      0.06062   
   1    29   1U    0     6     6  0.818      0.818      0.09093   
   1    29   2     0     2     2  0.841      0.841      0.02273   
   1    30   1     0     3     3  0.875      0.875      0.03410   
   1    31   1U    0     5     5  0.875      0.875      0.05115   
   1    31   2     0     2     2  0.888      0.888      0.01279   
   1    32   1U    0     4     4  0.888      0.888      0.01918   
   1    32   2     0     1     1  0.893      0.893      0.004795  
   1    33   1     0     1     1  0.900      0.900      0.007193  
   1    34   1U    0     6     6  0.900      0.900      0.01079   
   1    34   2     0     1     1  0.902      0.902      0.002697  
   1    35   1U    0     6     6  0.902      0.902      0.004046  
   1    35   2     0     1     1  0.903      0.903      0.001011  
   1    36   1     0     1     1  0.905      0.905      0.001517  
   1    37   1     0     1     1  0.907      0.907      0.002276  
   1    38   1U    0     4     4  0.907      0.907      0.003414  
   1    38   2     0     1     1  0.908      0.908      0.0008534 
   1    39   1     0     1     1  0.909      0.909      0.001280  
   1    40   1U    0     4     4  0.909      0.909      0.001920  
   1    40   2     0     1     1  0.910      0.910      0.0004800 
   1    41   1     0     1     1  0.911      0.911      0.0007201 
   1    42   1     0     1     1  0.912      0.912      0.001080  
   1    43   1     0     2     2  0.913      0.913      0.001620  
   1    44   1     0     2     2  0.916      0.916      0.002430  
   1    45   1     0     4     4  0.919      0.919      0.003645  
   1    46   1     0     3     3  0.925      0.925      0.005468  
   1    47   1     0     6     6  0.933      0.933      0.008202  
   1    48   1     0     4     4  0.941      0.941      0.008202  
   1    49   1     0     5     5  0.949      0.949      0.008202  
   1    50   1     0     4     4  0.958      0.958      0.008202  
   1    51   1     0     4     4  0.966      0.966      0.008202  
   1    52   1     0     4     4  0.978      0.978      0.01230   
   1    53   1     0     5     5  0.997      0.997      0.01845   
   1    54   1     0     3     3  1.00       1.00       0.003405  
                          
 THE ANALYSIS HAS COMPLETED SUCCESSFULLY
