 Abaqus/Standard 3DEXPERIENCE R2017x                  DATE 21-Apr-2019 TIME 20:58:02
 SUMMARY OF JOB INFORMATION:
 STEP  INC ATT SEVERE EQUIL TOTAL  TOTAL      STEP       INC OF       DOF    IF
               DISCON ITERS ITERS  TIME/    TIME/LPF    TIME/LPF    MONITOR RIKS
               ITERS               FREQ
   1     1   1     0     2     2  1.00e-005  1.00e-005  1.000e-005
   1     2   1     0     1     1  2.00e-005  2.00e-005  1.000e-005
   1     3   1     0     1     1  3.50e-005  3.50e-005  1.500e-005
   1     4   1     0     1     1  5.75e-005  5.75e-005  2.250e-005
   1     5   1     0     1     1  9.13e-005  9.13e-005  3.375e-005
   1     6   1     0     1     1  0.000142   0.000142   5.063e-005
   1     7   1     0     1     1  0.000218   0.000218   7.594e-005
   1     8   1     0     1     1  0.000332   0.000332   0.0001139 
   1     9   1     0     1     1  0.000503   0.000503   0.0001709 
   1    10   1     0     1     1  0.000759   0.000759   0.0002563 
   1    11   1     0     1     1  0.00114    0.00114    0.0003844 
   1    12   1     0     1     1  0.00172    0.00172    0.0005767 
   1    13   1     0     1     1  0.00258    0.00258    0.0008650 
   1    14   1     0     1     1  0.00388    0.00388    0.001297  
   1    15   1     0     1     1  0.00583    0.00583    0.001946  
   1    16   1     0     1     1  0.00875    0.00875    0.002919  
   1    17   1     0     1     1  0.0131     0.0131     0.004379  
   1    18   1     0     1     1  0.0197     0.0197     0.006568  
   1    19   1     0     1     1  0.0295     0.0295     0.009853  
   1    20   1     0     1     1  0.0443     0.0443     0.01478   
   1    21   1     0     1     1  0.0665     0.0665     0.02217   
   1    22   1     0     1     1  0.0997     0.0997     0.03325   
   1    23   1     0     1     1  0.150      0.150      0.04988   
   1    24   1     0     1     1  0.224      0.224      0.07482   
   1    25   1     0     2     2  0.337      0.337      0.1122    
   1    26   1     0     2     2  0.505      0.505      0.1683    
   1    27   1     0     5     5  0.758      0.758      0.2525    
   1    28   1U    0     4     4  0.758      0.758      0.2425    
   1    28   2U    0     4     4  0.758      0.758      0.06062   
   1    28   3     0     3     3  0.773      0.773      0.01515   
   1    29   1U    0     5     5  0.773      0.773      0.01515   
   1    29   2     0     1     1  0.776      0.776      0.003789  
   1    30   1     0     1     1  0.782      0.782      0.005683  
   1    31   1U    0     6     6  0.782      0.782      0.008525  
   1    31   2     0     1     1  0.784      0.784      0.002131  
   1    32   1     0     1     1  0.787      0.787      0.003197  
   1    33   1U    0     4     4  0.787      0.787      0.004795  
   1    33   2     0     1     1  0.789      0.789      0.001199  
   1    34   1     0     1     1  0.790      0.790      0.001798  
   1    35   1U    0     4     4  0.790      0.790      0.002697  
   1    35   2     0     1     1  0.791      0.791      0.0006743 
   1    36   1     0     1     1  0.792      0.792      0.001011  
   1    37   1     0     1     1  0.794      0.794      0.001517  
   1    38   1     0     1     1  0.796      0.796      0.002276  
   1    39   1     0     1     1  0.799      0.799      0.003414  
   1    40   1U    0     4     4  0.799      0.799      0.005120  
   1    40   2     0     1     1  0.801      0.801      0.001280  
   1    41   1U    0     4     4  0.801      0.801      0.001920  
   1    41   2     0     1     1  0.801      0.801      0.0004800 
   1    42   1     0     1     1  0.802      0.802      0.0007201 
   1    43   1U    0     4     4  0.802      0.802      0.001080  
   1    43   2     0     1     1  0.802      0.802      0.0002700 
   1    44   1     0     1     1  0.803      0.803      0.0004050 
   1    45   1     0     1     1  0.803      0.803      0.0006076 
   1    46   1U    0     4     4  0.803      0.803      0.0009113 
   1    46   2     0     1     1  0.803      0.803      0.0002278 
   1    47   1     0     1     1  0.804      0.804      0.0003418 
   1    48   1     0     1     1  0.804      0.804      0.0005126 
   1    49   1     0     2     2  0.805      0.805      0.0007689 
   1    50   1U    0     4     4  0.805      0.805      0.001153  
   1    50   2     0     1     1  0.805      0.805      0.0002884 
   1    51   1     0     1     1  0.806      0.806      0.0004325 
   1    52   1     0     2     2  0.806      0.806      0.0006488 
   1    53   1U    0     5     5  0.806      0.806      0.0009732 
   1    53   2     0     1     1  0.807      0.807      0.0002433 
   1    54   1     0     1     1  0.807      0.807      0.0003649 
   1    55   1     0     2     2  0.808      0.808      0.0005474 
   1    56   1U    0     5     5  0.808      0.808      0.0008211 
   1    56   2     0     1     1  0.808      0.808      0.0002053 
   1    57   1     0     1     1  0.808      0.808      0.0003079 
   1    58   1     0     2     2  0.808      0.808      0.0004619 
   1    59   1U    0     5     5  0.808      0.808      0.0006928 
   1    59   2     0     1     1  0.809      0.809      0.0001732 
   1    60   1     0     1     1  0.809      0.809      0.0002598 
   1    61   1     0     1     1  0.809      0.809      0.0003897 
   1    62   1U    0    10    10  0.809      0.809      0.0005846 
   1    62   2     0     1     1  0.809      0.809      0.0001461 
   1    63   1     0     1     1  0.810      0.810      0.0002192 
   1    64   1     0     1     1  0.810      0.810      0.0003288 
   1    65   1U    0     4     4  0.810      0.810      0.0004932 
   1    65   2     0     1     1  0.810      0.810      0.0001233 
   1    66   1     0     1     1  0.810      0.810      0.0001850 
   1    67   1     0     5     5  0.811      0.811      0.0002774 
   1    68   1     0     2     2  0.811      0.811      0.0002774 
   1    69   1     0     4     4  0.811      0.811      0.0002774 
   1    70   1     0     3     3  0.812      0.812      0.0004162 
   1    71   1     0     8     8  0.812      0.812      0.0006242 
   1    72   1U    0     9     9  0.812      0.812      0.0006242 
   1    72   2     0     4     4  0.812      0.812      0.0003121 
   1    73   1     0     5     5  0.813      0.813      0.0003121 
   1    74   1     0     5     5  0.813      0.813      0.0003121 
   1    75   1     0     3     3  0.813      0.813      0.0003121 
   1    76   1     0     3     3  0.814      0.814      0.0003121 
   1    77   1     0     9     9  0.814      0.814      0.0004682 
   1    78   1     0     3     3  0.815      0.815      0.0004682 
   1    79   1     0     2     2  0.815      0.815      0.0004682 
   1    80   1     0     6     6  0.816      0.816      0.0007023 
   1    81   1U    0     9     9  0.816      0.816      0.0007023 
   1    81   2     0     4     4  0.816      0.816      0.0003511 
   1    82   1     0     5     5  0.817      0.817      0.0003511 
   1    83   1     0     5     5  0.817      0.817      0.0003511 
   1    84   1     0     8     8  0.817      0.817      0.0003511 
   1    85   1     0     8     8  0.818      0.818      0.0003511 
   1    86   1     0     8     8  0.818      0.818      0.0003511 
   1    87   1     0     2     2  0.818      0.818      0.0003511 
   1    88   1     0     2     2  0.819      0.819      0.0003511 
   1    89   1     0     3     3  0.819      0.819      0.0005267 
   1    90   1U    0     9     9  0.819      0.819      0.0007901 
   1    90   2     0     3     3  0.820      0.820      0.0003950 
   1    91   1     0     8     8  0.820      0.820      0.0005925 
   1    92   1     0     4     4  0.821      0.821      0.0005925 
   1    93   1     0     3     3  0.821      0.821      0.0005925 
   1    94   1     0     8     8  0.822      0.822      0.0008888 
   1    95   1     0    10    10  0.823      0.823      0.0008888 
   1    96   1     0     4     4  0.824      0.824      0.0008888 
   1    97   1     0     5     5  0.825      0.825      0.0008888 
   1    98   1     0     4     4  0.826      0.826      0.0008888 
   1    99   1     0    15    15  0.827      0.827      0.0008888 
   1   100   1     0     6     6  0.827      0.827      0.0006666 
   1   101   1     0     4     4  0.828      0.828      0.0006666 
   1   102   1     0     3     3  0.829      0.829      0.0006666 
   1   103   1U    0     4     4  0.829      0.829      0.0009999 
   1   103   2     0     2     2  0.829      0.829      0.0002500 
   1   104   1     0     3     3  0.829      0.829      0.0003750 
   1   105   1     0    15    15  0.830      0.830      0.0005625 
   1   106   1     0     3     3  0.830      0.830      0.0004218 
   1   107   1     0     3     3  0.831      0.831      0.0004218 
   1   108   1     0    10    10  0.831      0.831      0.0006328 
   1   109   1     0     4     4  0.832      0.832      0.0006328 
   1   110   1     0     2     2  0.833      0.833      0.0006328 
   1   111   1     0     2     2  0.834      0.834      0.0009491 
   1   112   1     0     5     5  0.835      0.835      0.001424  
   1   113   1     0     6     6  0.836      0.836      0.001424  
   1   114   1     0     6     6  0.838      0.838      0.001424  
   1   115   1     0     4     4  0.839      0.839      0.001424  
   1   116   1     0     5     5  0.841      0.841      0.001424  
   1   117   1     0     2     2  0.842      0.842      0.001424  
   1   118   1     0     3     3  0.844      0.844      0.001424  
   1   119   1     0     4     4  0.846      0.846      0.002136  
   1   120   1U    0     5     5  0.846      0.846      0.003203  
   1   120   2     0     2     2  0.846      0.846      0.0008008 
   1   121   1U    0     4     4  0.846      0.846      0.001201  
   1   121   2     0     1     1  0.847      0.847      0.0003003 
   1   122   1U    0     4     4  0.847      0.847      0.0004505 
   1   122   2     0     1     1  0.847      0.847      0.0001126 
   1   123   1     0     1     1  0.847      0.847      0.0001689 
   1   124   1U    0     4     4  0.847      0.847      0.0002534 
   1   124   2     0     1     1  0.847      0.847      6.335e-005
   1   125   1U    0     4     4  0.847      0.847      9.502e-005
   1   125   2U    0     4     4  0.847      0.847      2.376e-005
   1   125   3U    0     4     4  0.847      0.847      5.939e-006
   1   125   4     0     1     1  0.847      0.847      1.485e-006
   1   126   1     0     1     1  0.847      0.847      2.227e-006
   1   127   1     0     1     1  0.847      0.847      3.341e-006
   1   128   1     0     1     1  0.847      0.847      5.011e-006
   1   129   1     0     1     1  0.847      0.847      7.516e-006
   1   130   1     0     1     1  0.847      0.847      1.127e-005
   1   131   1     0     1     1  0.847      0.847      1.691e-005
   1   132   1     0     1     1  0.847      0.847      2.537e-005
   1   133   1     0     1     1  0.847      0.847      3.805e-005
   1   134   1     0     1     1  0.847      0.847      5.708e-005
   1   135   1     0     1     1  0.847      0.847      8.562e-005
   1   136   1     0     1     1  0.847      0.847      0.0001284 
   1   137   1     0     1     1  0.848      0.848      0.0001926 
   1   138   1     0     1     1  0.848      0.848      0.0002890 
   1   139   1     0     1     1  0.848      0.848      0.0004334 
   1   140   1     0     2     2  0.849      0.849      0.0006501 
   1   141   1     0     2     2  0.850      0.850      0.0009752 
   1   142   1     0     2     2  0.852      0.852      0.001463  
   1   143   1     0     2     2  0.854      0.854      0.002194  
   1   144   1U    0     4     4  0.854      0.854      0.003291  
   1   144   2     0     2     2  0.855      0.855      0.0008228 
   1   145   1     0     2     2  0.856      0.856      0.001234  
   1   146   1     0     2     2  0.858      0.858      0.001851  
   1   147   1U    0     4     4  0.858      0.858      0.002777  
   1   147   2     0     1     1  0.858      0.858      0.0006943 
   1   148   1     0     2     2  0.859      0.859      0.001041  
   1   149   1     0     2     2  0.861      0.861      0.001562  
   1   150   1U    0     4     4  0.861      0.861      0.002343  
   1   150   2     0     1     1  0.861      0.861      0.0005858 
   1   151   1     0     2     2  0.862      0.862      0.0008787 
   1   152   1     0     2     2  0.864      0.864      0.001318  
   1   153   1     0     2     2  0.866      0.866      0.001977  
   1   154   1U    0     5     5  0.866      0.866      0.002966  
   1   154   2     0     1     1  0.866      0.866      0.0007414 
   1   155   1     0     2     2  0.868      0.868      0.001112  
   1   156   1U    0     7     7  0.868      0.868      0.001668  
   1   156   2     0     1     1  0.868      0.868      0.0004170 
   1   157   1     0     1     1  0.869      0.869      0.0006256 
   1   158   1     0     2     2  0.869      0.869      0.0009383 
   1   159   1     0     2     2  0.871      0.871      0.001407  
   1   160   1U    0     4     4  0.871      0.871      0.002111  
   1   160   2     0     2     2  0.871      0.871      0.0005278 
   1   161   1     0     1     1  0.872      0.872      0.0007917 
   1   162   1     0     2     2  0.873      0.873      0.001188  
   1   163   1     0     2     2  0.875      0.875      0.001781  
   1   164   1U    0     5     5  0.875      0.875      0.002672  
   1   164   2     0     1     1  0.876      0.876      0.0006680 
   1   165   1     0     4     4  0.877      0.877      0.001002  
   1   166   1     0     4     4  0.878      0.878      0.001503  
   1   167   1U    0     7     7  0.878      0.878      0.002255  
   1   167   2     0     1     1  0.879      0.879      0.0005636 
   1   168   1     0     2     2  0.880      0.880      0.0008455 
   1   169   1     0    10    10  0.881      0.881      0.001268  
   1   170   1     0     2     2  0.882      0.882      0.001268  
   1   171   1     0    10    10  0.884      0.884      0.001268  
   1   172   1U    0     5     5  0.884      0.884      0.001268  
   1   172   2     0     1     1  0.884      0.884      0.0003170 
   1   173   1     0     1     1  0.884      0.884      0.0003170 
   1   174   1     0     2     2  0.885      0.885      0.0004756 
   1   175   1     0     2     2  0.885      0.885      0.0007133 
   1   176   1     0     5     5  0.886      0.886      0.001070  
   1   177   1     0     3     3  0.888      0.888      0.001070  
   1   178   1     0     5     5  0.889      0.889      0.001070  
   1   179   1U    0     9     9  0.889      0.889      0.001070  
   1   179   2     0     2     2  0.889      0.889      0.0005350 
   1   180   1     0     2     2  0.890      0.890      0.0005350 
   1   181   1     0     5     5  0.890      0.890      0.0008025 
   1   182   1     0     6     6  0.891      0.891      0.0008025 
   1   183   1     0     4     4  0.892      0.892      0.0008025 
   1   184   1     0     3     3  0.893      0.893      0.0008025 
   1   185   1     0     9     9  0.894      0.894      0.001204  
   1   186   1U    0     4     4  0.894      0.894      0.001204  
   1   186   2     0     1     1  0.894      0.894      0.0003009 
   1   187   1     0     1     1  0.895      0.895      0.0003009 
   1   188   1     0     2     2  0.895      0.895      0.0004514 
   1   189   1     0     4     4  0.896      0.896      0.0006771 
   1   190   1U    0     4     4  0.896      0.896      0.001016  
   1   190   2     0     1     1  0.896      0.896      0.0002539 
   1   191   1     0     2     2  0.896      0.896      0.0003809 
   1   192   1     0     3     3  0.897      0.897      0.0005713 
   1   193   1     0     2     2  0.898      0.898      0.0008570 
   1   194   1U    0     7     7  0.898      0.898      0.001285  
   1   194   2     0     2     2  0.898      0.898      0.0003214 
   1   195   1     0     2     2  0.899      0.899      0.0004821 
   1   196   1     0     4     4  0.899      0.899      0.0007231 
   1   197   1U    0     5     5  0.899      0.899      0.001085  
   1   197   2     0     1     1  0.900      0.900      0.0002712 
   1   198   1     0     2     2  0.900      0.900      0.0004067 
   1   199   1     0     5     5  0.901      0.901      0.0006101 
   1   200   1     0     5     5  0.901      0.901      0.0006101 
   1   201   1     0     4     4  0.902      0.902      0.0006101 
   1   202   1     0     3     3  0.903      0.903      0.0006101 
   1   203   1U    0     4     4  0.903      0.903      0.0009151 
   1   203   2     0     1     1  0.903      0.903      0.0002288 
   1   204   1     0     2     2  0.903      0.903      0.0003432 
   1   205   1     0     3     3  0.904      0.904      0.0005148 
   1   206   1U    0     4     4  0.904      0.904      0.0007722 
   1   206   2     0     1     1  0.904      0.904      0.0001930 
   1   207   1     0     2     2  0.904      0.904      0.0002896 
   1   208   1     0     5     5  0.905      0.905      0.0004343 
   1   209   1     0     5     5  0.905      0.905      0.0004343 
   1   210   1     0     4     4  0.905      0.905      0.0004343 
   1   211   1     0     3     3  0.906      0.906      0.0004343 
   1   212   1U    0     4     4  0.906      0.906      0.0006515 
   1   212   2     0     1     1  0.906      0.906      0.0001629 
   1   213   1     0     2     2  0.906      0.906      0.0002443 
   1   214   1U    0     4     4  0.906      0.906      0.0003665 
   1   214   2     0     1     1  0.906      0.906      9.162e-005
   1   215   1     0     1     1  0.906      0.906      0.0001374 
   1   216   1     0     2     2  0.907      0.907      0.0002061 
   1   217   1     0     2     2  0.907      0.907      0.0003092 
   1   218   1     0     5     5  0.907      0.907      0.0004638 
   1   219   1     0    10    10  0.908      0.908      0.0004638 
   1   220   1     0     4     4  0.908      0.908      0.0004638 
   1   221   1     0    10    10  0.909      0.909      0.0004638 
   1   222   1     0     8     8  0.909      0.909      0.0004638 
   1   223   1     0     5     5  0.910      0.910      0.0004638 
   1   224   1     0     3     3  0.910      0.910      0.0004638 
   1   225   1     0     4     4  0.911      0.911      0.0004638 
   1   226   1     0     9     9  0.911      0.911      0.0006957 
   1   227   1U    0     4     4  0.911      0.911      0.0006957 
   1   227   2     0     1     1  0.912      0.912      0.0001739 
   1   228   1     0     1     1  0.912      0.912      0.0001739 
   1   229   1     0     3     3  0.912      0.912      0.0002609 
   1   230   1     0     4     4  0.912      0.912      0.0003913 
   1   231   1     0     4     4  0.913      0.913      0.0005870 
   1   232   1U    0     9     9  0.913      0.913      0.0008805 
   1   232   2     0     2     2  0.913      0.913      0.0004403 
   1   233   1     0    10    10  0.914      0.914      0.0006604 
   1   234   1     0    10    10  0.915      0.915      0.0006604 
   1   235   1     0     8     8  0.915      0.915      0.0006604 
   1   236   1     0     4     4  0.916      0.916      0.0006604 
   1   237   1U    0     5     5  0.916      0.916      0.0006604 
   1   237   2     0     1     1  0.916      0.916      0.0001651 
   1   238   1     0     1     1  0.916      0.916      0.0002476 
   1   239   1     0     7     7  0.917      0.917      0.0003715 
   1   240   1     0     2     2  0.917      0.917      0.0003715 
   1   241   1     0     2     2  0.918      0.918      0.0003715 
   1   242   1     0     3     3  0.918      0.918      0.0005572 
   1   243   1     0     4     4  0.919      0.919      0.0008358 
   1   244   1U    0     4     4  0.919      0.919      0.001254  
   1   244   2     0     3     3  0.919      0.919      0.0003134 
   1   245   1     0     2     2  0.920      0.920      0.0004701 
   1   246   1     0     7     7  0.920      0.920      0.0007052 
   1   247   1     0     2     2  0.921      0.921      0.0007052 
   1   248   1     0     2     2  0.922      0.922      0.0007052 
   1   249   1     0     3     3  0.923      0.923      0.001058  
   1   250   1U    0     5     5  0.923      0.923      0.001587  
   1   250   2     0     1     1  0.923      0.923      0.0003967 
   1   251   1     0     1     1  0.924      0.924      0.0005950 
   1   252   1U    0     6     6  0.924      0.924      0.0008925 
   1   252   2     0     1     1  0.924      0.924      0.0002231 
   1   253   1     0     2     2  0.924      0.924      0.0003347 
   1   254   1     0    10    10  0.925      0.925      0.0005021 
   1   255   1     0     2     2  0.925      0.925      0.0005021 
   1   256   1     0     2     2  0.926      0.926      0.0005021 
   1   257   1     0     2     2  0.927      0.927      0.0007531 
   1   258   1     0     3     3  0.928      0.928      0.001130  
   1   259   1U    0     8     8  0.928      0.928      0.001694  
   1   259   2     0     2     2  0.928      0.928      0.0004236 
   1   260   1     0     2     2  0.929      0.929      0.0006354 
   1   261   1U    0     4     4  0.929      0.929      0.0009531 
   1   261   2     0     3     3  0.929      0.929      0.0002383 
   1   262   1     0     2     2  0.930      0.930      0.0003574 
   1   263   1     0     3     3  0.930      0.930      0.0005361 
   1   264   1U    0     4     4  0.930      0.930      0.0008042 
   1   264   2     0     1     1  0.930      0.930      0.0002010 
   1   265   1     0     2     2  0.931      0.931      0.0003016 
   1   266   1     0     1     1  0.931      0.931      0.0004524 
   1   267   1     0     1     1  0.932      0.932      0.0006785 
   1   268   1     0     2     2  0.933      0.933      0.001018  
   1   269   1U    0     4     4  0.933      0.933      0.001527  
   1   269   2     0     2     2  0.933      0.933      0.0003817 
   1   270   1     0     2     2  0.934      0.934      0.0005725 
   1   271   1     0     4     4  0.935      0.935      0.0008588 
   1   272   1     0     2     2  0.936      0.936      0.001288  
   1   273   1     0     4     4  0.938      0.938      0.001932  
   1   274   1U    0     4     4  0.938      0.938      0.002898  
   1   274   2     0     2     2  0.938      0.938      0.0007246 
   1   275   1     0     2     2  0.940      0.940      0.001087  
   1   276   1     0    10    10  0.941      0.941      0.001630  
   1   277   1U    0     4     4  0.941      0.941      0.001630  
   1   277   2     0     1     1  0.942      0.942      0.0004076 
   1   278   1     0     1     1  0.942      0.942      0.0004076 
   1   279   1     0     2     2  0.943      0.943      0.0006114 
   1   280   1     0     3     3  0.944      0.944      0.0009171 
   1   281   1     0     2     2  0.945      0.945      0.001376  
   1   282   1U    0     9     9  0.945      0.945      0.002063  
   1   282   2     0     1     1  0.945      0.945      0.0005158 
   1   283   1U    0     4     4  0.945      0.945      0.0007738 
   1   283   2     0     1     1  0.946      0.946      0.0001934 
   1   284   1     0     3     3  0.946      0.946      0.0002902 
   1   285   1     0     1     1  0.946      0.946      0.0004352 
   1   286   1     0     2     2  0.947      0.947      0.0006529 
   1   287   1     0     2     2  0.948      0.948      0.0009793 
   1   288   1     0     2     2  0.949      0.949      0.001469  
   1   289   1U    0     6     6  0.949      0.949      0.002203  
   1   289   2     0     1     1  0.950      0.950      0.0005509 
   1   290   1     0     2     2  0.951      0.951      0.0008263 
   1   291   1U    0     4     4  0.951      0.951      0.001239  
   1   291   2     0     1     1  0.951      0.951      0.0003099 
   1   292   1     0     6     6  0.952      0.952      0.0004648 
   1   293   1     0     1     1  0.952      0.952      0.0004648 
   1   294   1     0     2     2  0.953      0.953      0.0004648 
   1   295   1     0     3     3  0.953      0.953      0.0006972 
   1   296   1U    0     6     6  0.953      0.953      0.001046  
   1   296   2     0     1     1  0.953      0.953      0.0002614 
   1   297   1     0     4     4  0.954      0.954      0.0003922 
   1   298   1     0     2     2  0.954      0.954      0.0005882 
   1   299   1     0    10    10  0.955      0.955      0.0008824 
   1   300   1     0     2     2  0.956      0.956      0.0008824 
   1   301   1U    0     4     4  0.956      0.956      0.0008824 
   1   301   2     0     1     1  0.956      0.956      0.0002206 
   1   302   1     0     1     1  0.957      0.957      0.0003309 
   1   303   1     0     1     1  0.957      0.957      0.0004963 
   1   304   1     0     4     4  0.958      0.958      0.0007445 
   1   305   1     0     3     3  0.959      0.959      0.001117  
   1   306   1     0    10    10  0.961      0.961      0.001675  
   1   307   1     0     3     3  0.962      0.962      0.001675  
   1   308   1U    0     6     6  0.962      0.962      0.001675  
   1   308   2     0     3     3  0.963      0.963      0.0004188 
   1   309   1     0     2     2  0.964      0.964      0.0006282 
   1   310   1     0     2     2  0.964      0.964      0.0009423 
   1   311   1     0     3     3  0.966      0.966      0.001413  
   1   312   1     0     6     6  0.968      0.968      0.002120  
   1   313   1     0     5     5  0.970      0.970      0.002120  
   1   314   1     0     3     3  0.972      0.972      0.002120  
   1   315   1     0    10    10  0.974      0.974      0.002120  
   1   316   1     0     4     4  0.977      0.977      0.002120  
   1   317   1     0     4     4  0.979      0.979      0.002120  
   1   318   1U    0     5     5  0.979      0.979      0.003180  
   1   318   2     0     2     2  0.979      0.979      0.0007950 
   1   319   1U    0     5     5  0.979      0.979      0.001193  
   1   319   2     0     1     1  0.980      0.980      0.0002981 
   1   320   1     0     1     1  0.980      0.980      0.0004472 
   1   321   1     0    11    11  0.981      0.981      0.0006708 
   1   322   1     0     2     2  0.981      0.981      0.0005031 
   1   323   1     0     2     2  0.982      0.982      0.0005031 
   1   324   1     0     2     2  0.983      0.983      0.0007547 
   1   325   1     0     2     2  0.984      0.984      0.001132  
   1   326   1U    0     4     4  0.984      0.984      0.001698  
   1   326   2     0     1     1  0.984      0.984      0.0004245 
   1   327   1     0     2     2  0.985      0.985      0.0006367 
   1   328   1U    0     6     6  0.985      0.985      0.0009551 
   1   328   2     0     1     1  0.985      0.985      0.0002388 
   1   329   1     0     1     1  0.985      0.985      0.0003582 
   1   330   1U    0     4     4  0.985      0.985      0.0005373 
   1   330   2     0     1     1  0.986      0.986      0.0001343 
   1   331   1     0     3     3  0.986      0.986      0.0002015 
   1   332   1     0     1     1  0.986      0.986      0.0003022 
   1   333   1     0     2     2  0.986      0.986      0.0004533 
   1   334   1     0     2     2  0.987      0.987      0.0006800 
   1   335   1     0     2     2  0.988      0.988      0.001020  
   1   336   1     0     2     2  0.990      0.990      0.001530  
   1   337   1     0     3     3  0.992      0.992      0.002295  
   1   338   1     0     3     3  0.995      0.995      0.003442  
   1   339   1     0     3     3  1.00       1.00       0.004557  
                          
 THE ANALYSIS HAS COMPLETED SUCCESSFULLY
