 Abaqus/Standard 3DEXPERIENCE R2017x                  DATE 22-Apr-2019 TIME 19:09:31
 SUMMARY OF JOB INFORMATION:
 STEP  INC ATT SEVERE EQUIL TOTAL  TOTAL      STEP       INC OF       DOF    IF
               DISCON ITERS ITERS  TIME/    TIME/LPF    TIME/LPF    MONITOR RIKS
               ITERS               FREQ
   1     1   1     0     2     2  1.00e-005  1.00e-005  1.000e-005
   1     2   1     0     1     1  2.00e-005  2.00e-005  1.000e-005
   1     3   1     0     1     1  3.50e-005  3.50e-005  1.500e-005
   1     4   1     0     1     1  5.75e-005  5.75e-005  2.250e-005
   1     5   1     0     1     1  9.13e-005  9.13e-005  3.375e-005
   1     6   1     0     1     1  0.000142   0.000142   5.063e-005
   1     7   1     0     1     1  0.000218   0.000218   7.594e-005
   1     8   1     0     1     1  0.000332   0.000332   0.0001139 
   1     9   1     0     1     1  0.000503   0.000503   0.0001709 
   1    10   1     0     1     1  0.000759   0.000759   0.0002563 
   1    11   1     0     1     1  0.00114    0.00114    0.0003844 
   1    12   1     0     1     1  0.00172    0.00172    0.0005767 
   1    13   1     0     1     1  0.00258    0.00258    0.0008650 
   1    14   1     0     1     1  0.00388    0.00388    0.001297  
   1    15   1     0     1     1  0.00583    0.00583    0.001946  
   1    16   1     0     1     1  0.00875    0.00875    0.002919  
   1    17   1     0     1     1  0.0131     0.0131     0.004379  
   1    18   1     0     1     1  0.0197     0.0197     0.006568  
   1    19   1     0     1     1  0.0295     0.0295     0.009853  
   1    20   1     0     1     1  0.0443     0.0443     0.01478   
   1    21   1     0     1     1  0.0665     0.0665     0.02217   
   1    22   1     0     1     1  0.0997     0.0997     0.03325   
   1    23   1     0     1     1  0.150      0.150      0.04988   
   1    24   1     0     1     1  0.224      0.224      0.07482   
   1    25   1     0     2     2  0.337      0.337      0.1122    
   1    26   1     0     2     2  0.505      0.505      0.1683    
   1    27   1     0     5     5  0.758      0.758      0.2525    
   1    28   1U    0     5     5  0.758      0.758      0.2425    
   1    28   2U    0     5     5  0.758      0.758      0.06062   
   1    28   3U    0     4     4  0.758      0.758      0.01515   
   1    28   4     0     3     3  0.761      0.761      0.003789  
   1    29   1     0     1     1  0.765      0.765      0.003789  
   1    30   1     0     1     1  0.771      0.771      0.005683  
   1    31   1     0     1     1  0.779      0.779      0.008525  
   1    32   1     0     2     2  0.792      0.792      0.01279   
   1    33   1U    0     5     5  0.792      0.792      0.01918   
   1    33   2     0     1     1  0.797      0.797      0.004795  
   1    34   1U    0     9     9  0.797      0.797      0.007193  
   1    34   2     0     2     2  0.800      0.800      0.003596  
   1    35   1     0     4     4  0.806      0.806      0.005394  
   1    36   1     0     4     4  0.814      0.814      0.008092  
   1    37   1     0     7     7  0.826      0.826      0.01214   
   1    38   1     0     5     5  0.838      0.838      0.01214   
   1    39   1     0     4     4  0.850      0.850      0.01214   
   1    40   1     0     2     2  0.863      0.863      0.01214   
   1    41   1     0     2     2  0.881      0.881      0.01821   
   1    42   1     0     3     3  0.908      0.908      0.02731   
   1    43   1     0     3     3  0.949      0.949      0.04096   
   1    44   1     0     4     4  1.00       1.00       0.05100   
                          
 THE ANALYSIS HAS COMPLETED SUCCESSFULLY
