 Abaqus/Standard 3DEXPERIENCE R2017x                  DATE 19-Apr-2019 TIME 17:41:28
 SUMMARY OF JOB INFORMATION:
 STEP  INC ATT SEVERE EQUIL TOTAL  TOTAL      STEP       INC OF       DOF    IF
               DISCON ITERS ITERS  TIME/    TIME/LPF    TIME/LPF    MONITOR RIKS
               ITERS               FREQ
   1     1   1     0     2     2  1.00e-005  1.00e-005  1.000e-005
   1     2   1     0     1     1  2.00e-005  2.00e-005  1.000e-005
   1     3   1     0     1     1  3.50e-005  3.50e-005  1.500e-005
   1     4   1     0     1     1  5.75e-005  5.75e-005  2.250e-005
   1     5   1     0     1     1  9.13e-005  9.13e-005  3.375e-005
   1     6   1     0     1     1  0.000142   0.000142   5.063e-005
   1     7   1     0     1     1  0.000218   0.000218   7.594e-005
   1     8   1     0     1     1  0.000332   0.000332   0.0001139 
   1     9   1     0     1     1  0.000503   0.000503   0.0001709 
   1    10   1     0     1     1  0.000759   0.000759   0.0002563 
   1    11   1     0     1     1  0.00114    0.00114    0.0003844 
   1    12   1     0     1     1  0.00172    0.00172    0.0005767 
   1    13   1     0     1     1  0.00258    0.00258    0.0008650 
   1    14   1     0     1     1  0.00388    0.00388    0.001297  
   1    15   1     0     1     1  0.00583    0.00583    0.001946  
   1    16   1     0     1     1  0.00875    0.00875    0.002919  
   1    17   1     0     1     1  0.0131     0.0131     0.004379  
   1    18   1     0     1     1  0.0197     0.0197     0.006568  
   1    19   1     0     1     1  0.0295     0.0295     0.009853  
   1    20   1     0     1     1  0.0443     0.0443     0.01478   
   1    21   1     0     1     1  0.0665     0.0665     0.02217   
   1    22   1     0     1     1  0.0997     0.0997     0.03325   
   1    23   1     0     2     2  0.150      0.150      0.04988   
   1    24   1     0     2     2  0.224      0.224      0.07482   
   1    25   1     0     4     4  0.337      0.337      0.1122    
   1    26   1U    0     4     4  0.337      0.337      0.1683    
   1    26   2     0     5     5  0.379      0.379      0.04209   
   1    27   1     0     3     3  0.421      0.421      0.04209   
   1    28   1     0     3     3  0.463      0.463      0.04209   
   1    29   1     0     3     3  0.526      0.526      0.06313   
   1    30   1     0     4     4  0.621      0.621      0.09469   
   1    31   1     0    10    10  0.763      0.763      0.1420    
   1    32   1     0    10    10  0.905      0.905      0.1420    
   1    33   1U    0     5     5  0.905      0.905      0.09518   
   1    33   2U    0     5     5  0.905      0.905      0.02379   
   1    33   3     0     3     3  0.911      0.911      0.005949  
   1    34   1     0     1     1  0.917      0.917      0.005949  
   1    35   1     0     1     1  0.926      0.926      0.008923  
   1    36   1U    0     5     5  0.926      0.926      0.01338   
   1    36   2     0     1     1  0.929      0.929      0.003346  
   1    37   1     0     1     1  0.934      0.934      0.005019  
   1    38   1U    0     7     7  0.934      0.934      0.007529  
   1    38   2     0     1     1  0.936      0.936      0.001882  
   1    39   1     0     1     1  0.939      0.939      0.002823  
   1    40   1U    0     4     4  0.939      0.939      0.004235  
   1    40   2     0     1     1  0.940      0.940      0.001059  
   1    41   1     0     1     1  0.941      0.941      0.001588  
   1    42   1     0     1     1  0.944      0.944      0.002382  
   1    43   1     0     1     1  0.947      0.947      0.003573  
   1    44   1     0     1     1  0.953      0.953      0.005360  
   1    45   1     0     1     1  0.961      0.961      0.008040  
   1    46   1     0     2     2  0.973      0.973      0.01206   
   1    47   1     0     2     2  0.991      0.991      0.01809   
   1    48   1     0     2     2  1.00       1.00       0.009136  
                          
 THE ANALYSIS HAS COMPLETED SUCCESSFULLY
