 Abaqus/Standard 3DEXPERIENCE R2017x                  DATE 19-Apr-2019 TIME 18:36:17
 SUMMARY OF JOB INFORMATION:
 STEP  INC ATT SEVERE EQUIL TOTAL  TOTAL      STEP       INC OF       DOF    IF
               DISCON ITERS ITERS  TIME/    TIME/LPF    TIME/LPF    MONITOR RIKS
               ITERS               FREQ
   1     1   1     0     2     2  1.00e-005  1.00e-005  1.000e-005
   1     2   1     0     1     1  2.00e-005  2.00e-005  1.000e-005
   1     3   1     0     1     1  3.50e-005  3.50e-005  1.500e-005
   1     4   1     0     1     1  5.75e-005  5.75e-005  2.250e-005
   1     5   1     0     1     1  9.13e-005  9.13e-005  3.375e-005
   1     6   1     0     1     1  0.000142   0.000142   5.063e-005
   1     7   1     0     1     1  0.000218   0.000218   7.594e-005
   1     8   1     0     1     1  0.000332   0.000332   0.0001139 
   1     9   1     0     1     1  0.000503   0.000503   0.0001709 
   1    10   1     0     1     1  0.000759   0.000759   0.0002563 
   1    11   1     0     1     1  0.00114    0.00114    0.0003844 
   1    12   1     0     1     1  0.00172    0.00172    0.0005767 
   1    13   1     0     1     1  0.00258    0.00258    0.0008650 
   1    14   1     0     1     1  0.00388    0.00388    0.001297  
   1    15   1     0     1     1  0.00583    0.00583    0.001946  
   1    16   1     0     1     1  0.00875    0.00875    0.002919  
   1    17   1     0     1     1  0.0131     0.0131     0.004379  
   1    18   1     0     1     1  0.0197     0.0197     0.006568  
   1    19   1     0     1     1  0.0295     0.0295     0.009853  
   1    20   1     0     1     1  0.0443     0.0443     0.01478   
   1    21   1     0     1     1  0.0665     0.0665     0.02217   
   1    22   1     0     1     1  0.0997     0.0997     0.03325   
   1    23   1     0     1     1  0.150      0.150      0.04988   
   1    24   1     0     1     1  0.224      0.224      0.07482   
   1    25   1     0     1     1  0.337      0.337      0.1122    
   1    26   1     0     2     2  0.505      0.505      0.1683    
   1    27   1     0     3     3  0.758      0.758      0.2525    
   1    28   1U    0     6     6  0.758      0.758      0.2425    
   1    28   2     0     3     3  0.818      0.818      0.06062   
   1    29   1U    0     8     8  0.818      0.818      0.09093   
   1    29   2     0     2     2  0.841      0.841      0.02273   
   1    30   1     0     3     3  0.875      0.875      0.03410   
   1    31   1U    0     6     6  0.875      0.875      0.05115   
   1    31   2     0     2     2  0.888      0.888      0.01279   
   1    32   1     0     2     2  0.907      0.907      0.01918   
   1    33   1U    0     4     4  0.907      0.907      0.02877   
   1    33   2     0     1     1  0.914      0.914      0.007193  
   1    34   1U    0     6     6  0.914      0.914      0.01079   
   1    34   2     0     1     1  0.917      0.917      0.002697  
   1    35   1     0     1     1  0.921      0.921      0.004046  
   1    36   1     0     1     1  0.927      0.927      0.006069  
   1    37   1U    0     6     6  0.927      0.927      0.009103  
   1    37   2     0     1     1  0.929      0.929      0.002276  
   1    38   1U    0     4     4  0.929      0.929      0.003414  
   1    38   2     0     1     1  0.930      0.930      0.0008534 
   1    39   1U    0     4     4  0.930      0.930      0.001280  
   1    39   2     0     1     1  0.930      0.930      0.0003200 
   1    40   1     0     1     1  0.931      0.931      0.0004800 
   1    41   1     0     1     1  0.932      0.932      0.0007201 
   1    42   1     0     1     1  0.933      0.933      0.001080  
   1    43   1     0     1     1  0.934      0.934      0.001620  
   1    44   1     0     4     4  0.937      0.937      0.002430  
   1    45   1U    0     6     6  0.937      0.937      0.003645  
   1    45   2     0     1     1  0.938      0.938      0.0009113 
   1    46   1     0     1     1  0.939      0.939      0.001367  
   1    47   1     0     2     2  0.941      0.941      0.002051  
   1    48   1     0     3     3  0.944      0.944      0.003076  
   1    49   1U    0    10    10  0.944      0.944      0.004614  
   1    49   2     0     2     2  0.945      0.945      0.001153  
   1    50   1     0     2     2  0.947      0.947      0.001730  
   1    51   1     0     2     2  0.950      0.950      0.002595  
   1    52   1     0     2     2  0.954      0.954      0.003893  
   1    53   1     0     2     2  0.959      0.959      0.005839  
   1    54   1     0     6     6  0.968      0.968      0.008759  
   1    55   1     0     4     4  0.977      0.977      0.008759  
   1    56   1     0     4     4  0.986      0.986      0.008759  
   1    57   1     0     4     4  0.999      0.999      0.01314   
   1    58   1     0     2     2  1.00       1.00       0.001246  
                          
 THE ANALYSIS HAS COMPLETED SUCCESSFULLY
