1

   Abaqus 3DEXPERIENCE R2017x                                  Date 22-Apr-2019   Time 16:59:01
   For use by Supplied by Team-SolidSQUAD under license from Dassault Systemes or its subsidiary.

                                                                                 
                                                                                 
 STEP    1     INCREMENT     1     STEP TIME    0.00    


                        S T E P       1     S T A T I C   A N A L Y S I S


                                                                                          

     AUTOMATIC TIME CONTROL WITH -
          A SUGGESTED INITIAL TIME INCREMENT OF                1.000E-05
          AND A TOTAL TIME PERIOD OF                            1.00    
          THE MINIMUM TIME INCREMENT ALLOWED IS                1.000E-20
          THE MAXIMUM TIME INCREMENT ALLOWED IS                 1.00    

     LINEAR EQUATION SOLVER TYPE         DIRECT SPARSE

 CONVERGENCE TOLERANCE PARAMETERS FOR FORCE    
     CRITERION FOR RESIDUAL FORCE     FOR A NONLINEAR PROBLEM          5.000E-03
     CRITERION FOR DISP.    CORRECTION IN A NONLINEAR PROBLEM          1.000E-02
     INITIAL VALUE OF TIME AVERAGE FORCE                               1.000E-02
     AVERAGE FORCE     IS TIME AVERAGE FORCE    
     ALTERNATE CRIT. FOR RESIDUAL FORCE     FOR A NONLINEAR PROBLEM    2.000E-02
     CRITERION FOR ZERO FORCE     RELATIVE TO TIME AVRG. FORCE         1.000E-05
     CRITERION FOR RESIDUAL FORCE     WHEN THERE IS ZERO FLUX          1.000E-05
     CRITERION FOR DISP.    CORRECTION WHEN THERE IS ZERO FLUX         1.000E-03
     CRITERION FOR RESIDUAL FORCE     FOR A LINEAR INCREMENT           1.000E-08
     FIELD CONVERSION RATIO                                             1.00    
     CRITERION FOR ZERO FORCE     REL. TO TIME AVRG. MAX. FORCE        1.000E-05
     CRITERION FOR ZERO DISP.    RELATIVE TO CHARACTERISTIC LENGTH     1.000E-08

 CONVERGENCE TOLERANCE PARAMETERS FOR MOMENT   
     CRITERION FOR RESIDUAL MOMENT    FOR A NONLINEAR PROBLEM          5.000E-03
     CRITERION FOR ROTATION CORRECTION IN A NONLINEAR PROBLEM          1.000E-02
     INITIAL VALUE OF TIME AVERAGE MOMENT                              1.000E-02
     AVERAGE MOMENT    IS TIME AVERAGE MOMENT   
     ALTERNATE CRIT. FOR RESIDUAL MOMENT    FOR A NONLINEAR PROBLEM    2.000E-02
     CRITERION FOR ZERO MOMENT    RELATIVE TO TIME AVRG. MOMENT        1.000E-05
     CRITERION FOR RESIDUAL MOMENT    WHEN THERE IS ZERO FLUX          1.000E-05
     CRITERION FOR ROTATION CORRECTION WHEN THERE IS ZERO FLUX         1.000E-03
     CRITERION FOR RESIDUAL MOMENT    FOR A LINEAR INCREMENT           1.000E-08
     FIELD CONVERSION RATIO                                             1.00    
     CRITERION FOR ZERO MOMENT    REL. TO TIME AVRG. MAX. MOMENT       1.000E-05

     VOLUMETRIC STRAIN COMPATIBILITY TOLERANCE FOR HYBRID SOLIDS       1.000E-05
     AXIAL STRAIN COMPATIBILITY TOLERANCE FOR HYBRID BEAMS             1.000E-05
     TRANS. SHEAR STRAIN COMPATIBILITY TOLERANCE FOR HYBRID BEAMS      1.000E-05
     SOFT CONTACT CONSTRAINT COMPATIBILITY TOLERANCE FOR P>P0          5.000E-03
     SOFT CONTACT CONSTRAINT COMPATIBILITY TOLERANCE FOR P=0.0         0.100    
     CONTACT FORCE ERROR TOLERANCE FOR CONVERT SDI=YES                 1.00    
     DISPLACEMENT COMPATIBILITY TOLERANCE FOR DCOUP ELEMENTS           1.000E-05
     ROTATION COMPATIBILITY TOLERANCE FOR DCOUP ELEMENTS               1.000E-05

 EQUILIBRIUM WILL BE CHECKED FOR SEVERE DISCONTINUITY ITERATIONS

 TIME INCREMENTATION CONTROL PARAMETERS:
     FIRST EQUILIBRIUM ITERATION FOR CONSECUTIVE DIVERGENCE CHECK              4
     EQUILIBRIUM ITERATION AT WHICH LOG. CONVERGENCE RATE CHECK BEGINS         8
     EQUILIBRIUM ITERATION AFTER WHICH ALTERNATE RESIDUAL IS USED              9
     MAXIMUM EQUILIBRIUM ITERATIONS ALLOWED                                   16
     EQUILIBRIUM ITERATION COUNT FOR CUT-BACK IN NEXT INCREMENT               10
     MAXIMUM EQUILIB. ITERS IN TWO INCREMENTS FOR TIME INCREMENT INCREASE      4
     MAXIMUM ITERATIONS FOR SEVERE DISCONTINUITIES                            50
     MAXIMUM ATTEMPTS ALLOWED IN AN INCREMENT                                  5
     MAXIMUM DISCON. ITERS IN TWO INCREMENTS FOR TIME INCREMENT INCREASE      50
     MAXIMUM CONTACT AUGMENTATIONS FOR *SURFACE BEHAVIOR,AUGMENTED LAGRANGE   50
     CUT-BACK FACTOR AFTER DIVERGENCE                                 0.2500    
     CUT-BACK FACTOR FOR TOO SLOW CONVERGENCE                         0.5000    
     CUT-BACK FACTOR AFTER TOO MANY EQUILIBRIUM ITERATIONS            0.7500    
     CUT-BACK FACTOR AFTER TOO MANY SEVERE DISCONTINUITY ITERATIONS   0.2500    
     CUT-BACK FACTOR AFTER PROBLEMS IN ELEMENT ASSEMBLY               0.2500    
     INCREASE FACTOR AFTER TWO INCREMENTS THAT CONVERGE QUICKLY        1.500    
     MAX. TIME INCREMENT INCREASE FACTOR ALLOWED                       1.500    
     MAX. TIME INCREMENT INCREASE FACTOR ALLOWED (DYNAMICS)            1.250    
     MAX. TIME INCREMENT INCREASE FACTOR ALLOWED (DIFFUSION)           2.000    
     MINIMUM TIME INCREMENT RATIO FOR EXTRAPOLATION TO OCCUR          0.1000    
     MAX. RATIO OF TIME INCREMENT TO STABILITY LIMIT                   1.000    
     FRACTION OF STABILITY LIMIT FOR NEW TIME INCREMENT               0.9500    
     TIME INCREMENT INCREASE FACTOR BEFORE A TIME POINT                1.000    
     GLOBAL STABILIZATION CONTROL IS NOT USED

          PRINT OF INCREMENT NUMBER, TIME, ETC., EVERY    1  INCREMENTS

     THE MAXIMUM NUMBER OF INCREMENTS IN THIS STEP IS                    1000

          LARGE DISPLACEMENT THEORY WILL BE USED

          UNSYMMETRIC MATRIX STORAGE AND SOLUTION WILL BE USED

     LINEAR EXTRAPOLATION WILL BE USED

     CHARACTERISTIC ELEMENT LENGTH     0.163    

     DETAILS REGARDING ACTUAL SOLUTION WAVEFRONT REQUESTED

     DETAILED OUTPUT OF DIAGNOSTICS TO DATABASE REQUESTED

     PRINT OF INCREMENT NUMBER, TIME, ETC., TO THE MESSAGE FILE EVERY     1  INCREMENTS

     COLLECTING MODEL CONSTRAINT INFORMATION FOR OVERCONSTRAINT CHECKS

     COLLECTING STEP CONSTRAINT INFORMATION FOR OVERCONSTRAINT CHECKS


  INCREMENT     1 STARTS. ATTEMPT NUMBER  1, TIME INCREMENT  1.000E-05

  NUMBER OF EQUATIONS =     80220     NUMBER OF FLOATING PT. OPERATIONS =  7.65E+09

     CHECK POINT   START OF SOLVER    

     CHECK POINT  END OF SOLVER       

       ELAPSED USER TIME (SEC)      =   1.1000    
       ELAPSED SYSTEM TIME (SEC)    =  0.10000    
       ELAPSED TOTAL CPU TIME (SEC) =   1.2000    
       ELAPSED WALLCLOCK TIME (SEC) =          1
 

 ***WARNING: SOLVER PROBLEM. NUMERICAL SINGULARITY WHEN PROCESSING NODE 
             COMPOSITEPLATE-1.4 D.O.F. 3 RATIO = 49.6497E+12 .
 

 ***WARNING: SOLVER PROBLEM. NUMERICAL SINGULARITY WHEN PROCESSING NODE 
             COMPOSITEPLATE-1.4 D.O.F. 4 RATIO = 1.51161E+12.
 

 ***WARNING: SOLVER PROBLEM. NUMERICAL SINGULARITY WHEN PROCESSING NODE 
             COMPOSITEPLATE-1.4 D.O.F. 5 RATIO = 5.32393E+12.

               CONVERGENCE CHECKS FOR EQUILIBRIUM ITERATION     1


 AVERAGE FORCE                      1.367E-04   TIME AVG. FORCE       1.367E-04
 LARGEST RESIDUAL FORCE            -3.979E-10   AT NODE       2903   DOF  1
   INSTANCE: COMPOSITEPLATE-1                                                                
 LARGEST INCREMENT OF DISP.         3.500E-07   AT NODE         10   DOF  2
   INSTANCE: COMPOSITEPLATE-1                                                                
 LARGEST CORRECTION TO DISP.        3.500E-07   AT NODE         10   DOF  2
   INSTANCE: COMPOSITEPLATE-1                                                                
          DISP.    CORRECTION TOO LARGE COMPARED TO DISP.    INCREMENT

 AVERAGE MOMENT                     1.978E-21   TIME AVG. MOMENT      1.000E-02
 LARGEST RESIDUAL MOMENT            3.064E-20   AT NODE      15218   DOF  4
   INSTANCE: COMPOSITEPLATE-1                                                                
 LARGEST INCREMENT OF ROTATION     -5.489E-23   AT NODE         10   DOF  5
   INSTANCE: COMPOSITEPLATE-1                                                                
 LARGEST CORRECTION TO ROTATION    -5.489E-23   AT NODE         10   DOF  5
   INSTANCE: COMPOSITEPLATE-1                                                                
          THERE IS ZERO MOMENT    EVERYWHERE
 

 ***WARNING: THERE IS ZERO MOMENT EVERYWHERE IN THE MODEL BASED ON THE DEFAULT 
             CRITERION. PLEASE CHECK THE VALUE OF THE AVERAGE MOMENT DURING THE 
             CURRENT ITERATION TO VERIFY THAT THE MOMENT IS SMALL ENOUGH TO BE 
             TREATED AS ZERO. IF NOT, PLEASE USE THE SOLUTION CONTROLS TO RESET 
             THE CRITERION FOR ZERO MOMENT.

  NUMBER OF EQUATIONS =     80220     NUMBER OF FLOATING PT. OPERATIONS =  7.65E+09

     CHECK POINT   START OF SOLVER    

     CHECK POINT  END OF SOLVER       

       ELAPSED USER TIME (SEC)      =   1.0000    
       ELAPSED SYSTEM TIME (SEC)    =   0.0000    
       ELAPSED TOTAL CPU TIME (SEC) =   1.0000    
       ELAPSED WALLCLOCK TIME (SEC) =          1
 

 ***WARNING: SOLVER PROBLEM. NUMERICAL SINGULARITY WHEN PROCESSING NODE 
             COMPOSITEPLATE-1.4 D.O.F. 3 RATIO = 54.9734E+12 .

               CONVERGENCE CHECKS FOR EQUILIBRIUM ITERATION     2


 AVERAGE FORCE                      1.367E-04   TIME AVG. FORCE       1.367E-04
 LARGEST RESIDUAL FORCE            -4.833E-10   AT NODE        381   DOF  2
   INSTANCE: COMPOSITEPLATE-1                                                                
 LARGEST INCREMENT OF DISP.         3.500E-07   AT NODE         10   DOF  2
   INSTANCE: COMPOSITEPLATE-1                                                                
 LARGEST CORRECTION TO DISP.        2.207E-14   AT NODE       1885   DOF  1
   INSTANCE: COMPOSITEPLATE-1                                                                
          THE FORCE     EQUILIBRIUM EQUATIONS HAVE CONVERGED

 AVERAGE MOMENT                     3.069E-21   TIME AVG. MOMENT      1.000E-02
 LARGEST RESIDUAL MOMENT           -5.797E-20   AT NODE      13352   DOF  4
   INSTANCE: COMPOSITEPLATE-1                                                                
 LARGEST INCREMENT OF ROTATION      4.187E-23   AT NODE         16   DOF  4
   INSTANCE: COMPOSITEPLATE-1                                                                
 LARGEST CORRECTION TO ROTATION     4.772E-23   AT NODE        328   DOF  5
   INSTANCE: COMPOSITEPLATE-1                                                                
          THERE IS ZERO MOMENT    EVERYWHERE
 

 ***WARNING: THERE IS ZERO MOMENT EVERYWHERE IN THE MODEL BASED ON THE DEFAULT 
             CRITERION. PLEASE CHECK THE VALUE OF THE AVERAGE MOMENT DURING THE 
             CURRENT ITERATION TO VERIFY THAT THE MOMENT IS SMALL ENOUGH TO BE 
             TREATED AS ZERO. IF NOT, PLEASE USE THE SOLUTION CONTROLS TO RESET 
             THE CRITERION FOR ZERO MOMENT.

 ITERATION SUMMARY FOR THE INCREMENT:   2 TOTAL ITERATIONS, OF WHICH
   0 ARE SEVERE DISCONTINUITY ITERATIONS AND  2 ARE EQUILIBRIUM ITERATIONS.

 TIME INCREMENT COMPLETED  1.000E-05,  FRACTION OF STEP COMPLETED  1.000E-05
 STEP TIME COMPLETED       1.000E-05,  TOTAL TIME COMPLETED        1.000E-05


  INCREMENT     2 STARTS. ATTEMPT NUMBER  1, TIME INCREMENT  1.000E-05

  NUMBER OF EQUATIONS =     80220     NUMBER OF FLOATING PT. OPERATIONS =  7.65E+09

     CHECK POINT   START OF SOLVER    

     CHECK POINT  END OF SOLVER       

       ELAPSED USER TIME (SEC)      =   1.0000    
       ELAPSED SYSTEM TIME (SEC)    =   0.0000    
       ELAPSED TOTAL CPU TIME (SEC) =   1.0000    
       ELAPSED WALLCLOCK TIME (SEC) =          1
 

 ***WARNING: SOLVER PROBLEM. NUMERICAL SINGULARITY WHEN PROCESSING NODE 
             COMPOSITEPLATE-1.4 D.O.F. 3 RATIO = 36.5108E+12 .

               CONVERGENCE CHECKS FOR EQUILIBRIUM ITERATION     1


 AVERAGE FORCE                      4.129E-04   TIME AVG. FORCE       2.748E-04
 LARGEST RESIDUAL FORCE            -4.042E-10   AT NODE       9984   DOF  2
   INSTANCE: COMPOSITEPLATE-1                                                                
 LARGEST INCREMENT OF DISP.         3.500E-07   AT NODE         10   DOF  2
   INSTANCE: COMPOSITEPLATE-1                                                                
 LARGEST CORRECTION TO DISP.       -4.455E-14   AT NODE       4099   DOF  1
   INSTANCE: COMPOSITEPLATE-1                                                                
          THE FORCE     EQUILIBRIUM EQUATIONS HAVE CONVERGED

 AVERAGE MOMENT                     7.125E-21   TIME AVG. MOMENT      1.000E-02
 LARGEST RESIDUAL MOMENT           -1.617E-19   AT NODE      10485   DOF  4
   INSTANCE: COMPOSITEPLATE-1                                                                
 LARGEST INCREMENT OF ROTATION     -3.584E-23   AT NODE      12661   DOF  5
   INSTANCE: COMPOSITEPLATE-1                                                                
 LARGEST CORRECTION TO ROTATION    -5.834E-23   AT NODE      12661   DOF  5
   INSTANCE: COMPOSITEPLATE-1                                                                
          THERE IS ZERO MOMENT    EVERYWHERE
 

 ***WARNING: THERE IS ZERO MOMENT EVERYWHERE IN THE MODEL BASED ON THE DEFAULT 
             CRITERION. PLEASE CHECK THE VALUE OF THE AVERAGE MOMENT DURING THE 
             CURRENT ITERATION TO VERIFY THAT THE MOMENT IS SMALL ENOUGH TO BE 
             TREATED AS ZERO. IF NOT, PLEASE USE THE SOLUTION CONTROLS TO RESET 
             THE CRITERION FOR ZERO MOMENT.
          TIME INCREMENT MAY NOW INCREASE TO    1.500E-05

 ITERATION SUMMARY FOR THE INCREMENT:   1 TOTAL ITERATIONS, OF WHICH
   0 ARE SEVERE DISCONTINUITY ITERATIONS AND  1 ARE EQUILIBRIUM ITERATIONS.

 TIME INCREMENT COMPLETED  1.000E-05,  FRACTION OF STEP COMPLETED  2.000E-05
 STEP TIME COMPLETED       2.000E-05,  TOTAL TIME COMPLETED        2.000E-05


  INCREMENT     3 STARTS. ATTEMPT NUMBER  1, TIME INCREMENT  1.500E-05

  NUMBER OF EQUATIONS =     80220     NUMBER OF FLOATING PT. OPERATIONS =  7.65E+09

     CHECK POINT   START OF SOLVER    

     CHECK POINT  END OF SOLVER       

       ELAPSED USER TIME (SEC)      =  0.90000    
       ELAPSED SYSTEM TIME (SEC)    =  0.10000    
       ELAPSED TOTAL CPU TIME (SEC) =   1.0000    
       ELAPSED WALLCLOCK TIME (SEC) =          1
 

 ***WARNING: SOLVER PROBLEM. NUMERICAL SINGULARITY WHEN PROCESSING NODE 
             COMPOSITEPLATE-1.4 D.O.F. 3 RATIO = 47.7518E+12 .

               CONVERGENCE CHECKS FOR EQUILIBRIUM ITERATION     1


 AVERAGE FORCE                      7.226E-04   TIME AVG. FORCE       4.241E-04
 LARGEST RESIDUAL FORCE             3.428E-10   AT NODE       2067   DOF  1
   INSTANCE: COMPOSITEPLATE-1                                                                
 LARGEST INCREMENT OF DISP.         5.250E-07   AT NODE         10   DOF  2
   INSTANCE: COMPOSITEPLATE-1                                                                
 LARGEST CORRECTION TO DISP.        8.194E-14   AT NODE       6503   DOF  1
   INSTANCE: COMPOSITEPLATE-1                                                                
          THE FORCE     EQUILIBRIUM EQUATIONS HAVE CONVERGED

 AVERAGE MOMENT                     1.346E-20   TIME AVG. MOMENT      1.000E-02
 LARGEST RESIDUAL MOMENT           -2.688E-19   AT NODE      15935   DOF  4
   INSTANCE: COMPOSITEPLATE-1                                                                
 LARGEST INCREMENT OF ROTATION     -4.850E-23   AT NODE        504   DOF  5
   INSTANCE: COMPOSITEPLATE-1                                                                
 LARGEST CORRECTION TO ROTATION    -8.472E-23   AT NODE         13   DOF  4
   INSTANCE: COMPOSITEPLATE-1                                                                
          THERE IS ZERO MOMENT    EVERYWHERE
 

 ***WARNING: THERE IS ZERO MOMENT EVERYWHERE IN THE MODEL BASED ON THE DEFAULT 
             CRITERION. PLEASE CHECK THE VALUE OF THE AVERAGE MOMENT DURING THE 
             CURRENT ITERATION TO VERIFY THAT THE MOMENT IS SMALL ENOUGH TO BE 
             TREATED AS ZERO. IF NOT, PLEASE USE THE SOLUTION CONTROLS TO RESET 
             THE CRITERION FOR ZERO MOMENT.
          TIME INCREMENT MAY NOW INCREASE TO    2.250E-05

 ITERATION SUMMARY FOR THE INCREMENT:   1 TOTAL ITERATIONS, OF WHICH
   0 ARE SEVERE DISCONTINUITY ITERATIONS AND  1 ARE EQUILIBRIUM ITERATIONS.

 TIME INCREMENT COMPLETED  1.500E-05,  FRACTION OF STEP COMPLETED  3.500E-05
 STEP TIME COMPLETED       3.500E-05,  TOTAL TIME COMPLETED        3.500E-05


  INCREMENT     4 STARTS. ATTEMPT NUMBER  1, TIME INCREMENT  2.250E-05

  NUMBER OF EQUATIONS =     80220     NUMBER OF FLOATING PT. OPERATIONS =  7.65E+09

     CHECK POINT   START OF SOLVER    

     CHECK POINT  END OF SOLVER       

       ELAPSED USER TIME (SEC)      =   1.0000    
       ELAPSED SYSTEM TIME (SEC)    =   0.0000    
       ELAPSED TOTAL CPU TIME (SEC) =   1.0000    
       ELAPSED WALLCLOCK TIME (SEC) =          1
 

 ***WARNING: SOLVER PROBLEM. NUMERICAL SINGULARITY WHEN PROCESSING NODE 
             COMPOSITEPLATE-1.4 D.O.F. 3 RATIO = 22.7881E+12 .

               CONVERGENCE CHECKS FOR EQUILIBRIUM ITERATION     1


 AVERAGE FORCE                      1.187E-03   TIME AVG. FORCE       6.148E-04
 LARGEST RESIDUAL FORCE             4.845E-10   AT NODE      10606   DOF  2
   INSTANCE: COMPOSITEPLATE-1                                                                
 LARGEST INCREMENT OF DISP.         7.875E-07   AT NODE         10   DOF  2
   INSTANCE: COMPOSITEPLATE-1                                                                
 LARGEST CORRECTION TO DISP.       -1.839E-13   AT NODE       4099   DOF  1
   INSTANCE: COMPOSITEPLATE-1                                                                
          THE FORCE     EQUILIBRIUM EQUATIONS HAVE CONVERGED

 AVERAGE MOMENT                     2.388E-20   TIME AVG. MOMENT      1.000E-02
 LARGEST RESIDUAL MOMENT            4.638E-19   AT NODE       8950   DOF  4
   INSTANCE: COMPOSITEPLATE-1                                                                
 LARGEST INCREMENT OF ROTATION      7.206E-23   AT NODE         15   DOF  5
   INSTANCE: COMPOSITEPLATE-1                                                                
 LARGEST CORRECTION TO ROTATION     1.243E-22   AT NODE      12661   DOF  5
   INSTANCE: COMPOSITEPLATE-1                                                                
          THERE IS ZERO MOMENT    EVERYWHERE
 

 ***WARNING: THERE IS ZERO MOMENT EVERYWHERE IN THE MODEL BASED ON THE DEFAULT 
             CRITERION. PLEASE CHECK THE VALUE OF THE AVERAGE MOMENT DURING THE 
             CURRENT ITERATION TO VERIFY THAT THE MOMENT IS SMALL ENOUGH TO BE 
             TREATED AS ZERO. IF NOT, PLEASE USE THE SOLUTION CONTROLS TO RESET 
             THE CRITERION FOR ZERO MOMENT.
          TIME INCREMENT MAY NOW INCREASE TO    3.375E-05

 ITERATION SUMMARY FOR THE INCREMENT:   1 TOTAL ITERATIONS, OF WHICH
   0 ARE SEVERE DISCONTINUITY ITERATIONS AND  1 ARE EQUILIBRIUM ITERATIONS.

 TIME INCREMENT COMPLETED  2.250E-05,  FRACTION OF STEP COMPLETED  5.750E-05
 STEP TIME COMPLETED       5.750E-05,  TOTAL TIME COMPLETED        5.750E-05


  INCREMENT     5 STARTS. ATTEMPT NUMBER  1, TIME INCREMENT  3.375E-05

  NUMBER OF EQUATIONS =     80220     NUMBER OF FLOATING PT. OPERATIONS =  7.65E+09

     CHECK POINT   START OF SOLVER    

     CHECK POINT  END OF SOLVER       

       ELAPSED USER TIME (SEC)      =  0.90000    
       ELAPSED SYSTEM TIME (SEC)    =   0.0000    
       ELAPSED TOTAL CPU TIME (SEC) =  0.90000    
       ELAPSED WALLCLOCK TIME (SEC) =          0
 

 ***WARNING: SOLVER PROBLEM. NUMERICAL SINGULARITY WHEN PROCESSING NODE 
             COMPOSITEPLATE-1.4 D.O.F. 3 RATIO = 20.5885E+12 .

               CONVERGENCE CHECKS FOR EQUILIBRIUM ITERATION     1


 AVERAGE FORCE                      1.884E-03   TIME AVG. FORCE       8.686E-04
 LARGEST RESIDUAL FORCE            -3.801E-10   AT NODE       3555   DOF  2
   INSTANCE: COMPOSITEPLATE-1                                                                
 LARGEST INCREMENT OF DISP.         1.181E-06   AT NODE         10   DOF  2
   INSTANCE: COMPOSITEPLATE-1                                                                
 LARGEST CORRECTION TO DISP.        4.155E-13   AT NODE       6506   DOF  1
   INSTANCE: COMPOSITEPLATE-1                                                                
          THE FORCE     EQUILIBRIUM EQUATIONS HAVE CONVERGED

 AVERAGE MOMENT                     3.784E-20   TIME AVG. MOMENT      1.000E-02
 LARGEST RESIDUAL MOMENT            6.495E-19   AT NODE      12662   DOF  4
   INSTANCE: COMPOSITEPLATE-1                                                                
 LARGEST INCREMENT OF ROTATION      1.062E-22   AT NODE         15   DOF  4
   INSTANCE: COMPOSITEPLATE-1                                                                
 LARGEST CORRECTION TO ROTATION    -1.404E-22   AT NODE        364   DOF  5
   INSTANCE: COMPOSITEPLATE-1                                                                
          THERE IS ZERO MOMENT    EVERYWHERE
 

 ***WARNING: THERE IS ZERO MOMENT EVERYWHERE IN THE MODEL BASED ON THE DEFAULT 
             CRITERION. PLEASE CHECK THE VALUE OF THE AVERAGE MOMENT DURING THE 
             CURRENT ITERATION TO VERIFY THAT THE MOMENT IS SMALL ENOUGH TO BE 
             TREATED AS ZERO. IF NOT, PLEASE USE THE SOLUTION CONTROLS TO RESET 
             THE CRITERION FOR ZERO MOMENT.
          TIME INCREMENT MAY NOW INCREASE TO    5.063E-05

 ITERATION SUMMARY FOR THE INCREMENT:   1 TOTAL ITERATIONS, OF WHICH
   0 ARE SEVERE DISCONTINUITY ITERATIONS AND  1 ARE EQUILIBRIUM ITERATIONS.

 TIME INCREMENT COMPLETED  3.375E-05,  FRACTION OF STEP COMPLETED  9.125E-05
 STEP TIME COMPLETED       9.125E-05,  TOTAL TIME COMPLETED        9.125E-05


  INCREMENT     6 STARTS. ATTEMPT NUMBER  1, TIME INCREMENT  5.063E-05

  NUMBER OF EQUATIONS =     80220     NUMBER OF FLOATING PT. OPERATIONS =  7.65E+09

     CHECK POINT   START OF SOLVER    

     CHECK POINT  END OF SOLVER       

       ELAPSED USER TIME (SEC)      =  0.90000    
       ELAPSED SYSTEM TIME (SEC)    =   0.0000    
       ELAPSED TOTAL CPU TIME (SEC) =  0.90000    
       ELAPSED WALLCLOCK TIME (SEC) =          1
 

 ***WARNING: SOLVER PROBLEM. NUMERICAL SINGULARITY WHEN PROCESSING NODE 
             COMPOSITEPLATE-1.4 D.O.F. 3 RATIO = 19.4672E+12 .

               CONVERGENCE CHECKS FOR EQUILIBRIUM ITERATION     1


 AVERAGE FORCE                      2.929E-03   TIME AVG. FORCE       1.212E-03
 LARGEST RESIDUAL FORCE            -4.247E-10   AT NODE          3   DOF  2
   INSTANCE: COMPOSITEPLATE-1                                                                
 LARGEST INCREMENT OF DISP.         1.772E-06   AT NODE         10   DOF  2
   INSTANCE: COMPOSITEPLATE-1                                                                
 LARGEST CORRECTION TO DISP.        9.307E-13   AT NODE       6501   DOF  1
   INSTANCE: COMPOSITEPLATE-1                                                                
          THE FORCE     EQUILIBRIUM EQUATIONS HAVE CONVERGED

 AVERAGE MOMENT                     5.765E-20   TIME AVG. MOMENT      1.000E-02
 LARGEST RESIDUAL MOMENT            9.065E-19   AT NODE      15599   DOF  4
   INSTANCE: COMPOSITEPLATE-1                                                                
 LARGEST INCREMENT OF ROTATION     -1.636E-22   AT NODE         13   DOF  5
   INSTANCE: COMPOSITEPLATE-1                                                                
 LARGEST CORRECTION TO ROTATION     2.674E-22   AT NODE        363   DOF  5
   INSTANCE: COMPOSITEPLATE-1                                                                
          THERE IS ZERO MOMENT    EVERYWHERE
 

 ***WARNING: THERE IS ZERO MOMENT EVERYWHERE IN THE MODEL BASED ON THE DEFAULT 
             CRITERION. PLEASE CHECK THE VALUE OF THE AVERAGE MOMENT DURING THE 
             CURRENT ITERATION TO VERIFY THAT THE MOMENT IS SMALL ENOUGH TO BE 
             TREATED AS ZERO. IF NOT, PLEASE USE THE SOLUTION CONTROLS TO RESET 
             THE CRITERION FOR ZERO MOMENT.
          TIME INCREMENT MAY NOW INCREASE TO    7.594E-05

 ITERATION SUMMARY FOR THE INCREMENT:   1 TOTAL ITERATIONS, OF WHICH
   0 ARE SEVERE DISCONTINUITY ITERATIONS AND  1 ARE EQUILIBRIUM ITERATIONS.

 TIME INCREMENT COMPLETED  5.063E-05,  FRACTION OF STEP COMPLETED  1.419E-04
 STEP TIME COMPLETED       1.419E-04,  TOTAL TIME COMPLETED        1.419E-04


  INCREMENT     7 STARTS. ATTEMPT NUMBER  1, TIME INCREMENT  7.594E-05

  NUMBER OF EQUATIONS =     80220     NUMBER OF FLOATING PT. OPERATIONS =  7.65E+09

     CHECK POINT   START OF SOLVER    

     CHECK POINT  END OF SOLVER       

       ELAPSED USER TIME (SEC)      =  0.90000    
       ELAPSED SYSTEM TIME (SEC)    =   0.0000    
       ELAPSED TOTAL CPU TIME (SEC) =  0.90000    
       ELAPSED WALLCLOCK TIME (SEC) =          0
 

 ***WARNING: SOLVER PROBLEM. NUMERICAL SINGULARITY WHEN PROCESSING NODE 
             COMPOSITEPLATE-1.4 D.O.F. 3 RATIO = 181.333E+12  .

               CONVERGENCE CHECKS FOR EQUILIBRIUM ITERATION     1


 AVERAGE FORCE                      4.496E-03   TIME AVG. FORCE       1.681E-03
 LARGEST RESIDUAL FORCE             4.002E-10   AT NODE      15410   DOF  2
   INSTANCE: COMPOSITEPLATE-1                                                                
 LARGEST INCREMENT OF DISP.         2.658E-06   AT NODE         10   DOF  2
   INSTANCE: COMPOSITEPLATE-1                                                                
 LARGEST CORRECTION TO DISP.       -2.098E-12   AT NODE       4098   DOF  1
   INSTANCE: COMPOSITEPLATE-1                                                                
          THE FORCE     EQUILIBRIUM EQUATIONS HAVE CONVERGED

 AVERAGE MOMENT                     9.374E-20   TIME AVG. MOMENT      1.000E-02
 LARGEST RESIDUAL MOMENT            1.647E-18   AT NODE      10453   DOF  4
   INSTANCE: COMPOSITEPLATE-1                                                                
 LARGEST INCREMENT OF ROTATION      3.072E-22   AT NODE         13   DOF  5
   INSTANCE: COMPOSITEPLATE-1                                                                
 LARGEST CORRECTION TO ROTATION     5.527E-22   AT NODE         13   DOF  5
   INSTANCE: COMPOSITEPLATE-1                                                                
          THERE IS ZERO MOMENT    EVERYWHERE
 

 ***WARNING: THERE IS ZERO MOMENT EVERYWHERE IN THE MODEL BASED ON THE DEFAULT 
             CRITERION. PLEASE CHECK THE VALUE OF THE AVERAGE MOMENT DURING THE 
             CURRENT ITERATION TO VERIFY THAT THE MOMENT IS SMALL ENOUGH TO BE 
             TREATED AS ZERO. IF NOT, PLEASE USE THE SOLUTION CONTROLS TO RESET 
             THE CRITERION FOR ZERO MOMENT.
          TIME INCREMENT MAY NOW INCREASE TO    1.139E-04

 ITERATION SUMMARY FOR THE INCREMENT:   1 TOTAL ITERATIONS, OF WHICH
   0 ARE SEVERE DISCONTINUITY ITERATIONS AND  1 ARE EQUILIBRIUM ITERATIONS.

 TIME INCREMENT COMPLETED  7.594E-05,  FRACTION OF STEP COMPLETED  2.178E-04
 STEP TIME COMPLETED       2.178E-04,  TOTAL TIME COMPLETED        2.178E-04


  INCREMENT     8 STARTS. ATTEMPT NUMBER  1, TIME INCREMENT  1.139E-04

  NUMBER OF EQUATIONS =     80220     NUMBER OF FLOATING PT. OPERATIONS =  7.65E+09

     CHECK POINT   START OF SOLVER    

     CHECK POINT  END OF SOLVER       

       ELAPSED USER TIME (SEC)      =  0.80000    
       ELAPSED SYSTEM TIME (SEC)    =   0.0000    
       ELAPSED TOTAL CPU TIME (SEC) =  0.80000    
       ELAPSED WALLCLOCK TIME (SEC) =          1
 

 ***WARNING: SOLVER PROBLEM. NUMERICAL SINGULARITY WHEN PROCESSING NODE 
             COMPOSITEPLATE-1.4 D.O.F. 3 RATIO = 14.6769E+15 .

               CONVERGENCE CHECKS FOR EQUILIBRIUM ITERATION     1


 AVERAGE FORCE                      6.848E-03   TIME AVG. FORCE       2.327E-03
 LARGEST RESIDUAL FORCE             4.039E-10   AT NODE       2895   DOF  1
   INSTANCE: COMPOSITEPLATE-1                                                                
 LARGEST INCREMENT OF DISP.         3.987E-06   AT NODE         10   DOF  2
   INSTANCE: COMPOSITEPLATE-1                                                                
 LARGEST CORRECTION TO DISP.        4.716E-12   AT NODE        182   DOF  1
   INSTANCE: COMPOSITEPLATE-1                                                                
          THE FORCE     EQUILIBRIUM EQUATIONS HAVE CONVERGED

 AVERAGE MOMENT                     1.335E-19   TIME AVG. MOMENT      1.000E-02
 LARGEST RESIDUAL MOMENT           -2.106E-18   AT NODE       5325   DOF  5
   INSTANCE: COMPOSITEPLATE-1                                                                
 LARGEST INCREMENT OF ROTATION     -4.444E-22   AT NODE        513   DOF  5
   INSTANCE: COMPOSITEPLATE-1                                                                
 LARGEST CORRECTION TO ROTATION    -6.956E-22   AT NODE         13   DOF  5
   INSTANCE: COMPOSITEPLATE-1                                                                
          THERE IS ZERO MOMENT    EVERYWHERE
 

 ***WARNING: THERE IS ZERO MOMENT EVERYWHERE IN THE MODEL BASED ON THE DEFAULT 
             CRITERION. PLEASE CHECK THE VALUE OF THE AVERAGE MOMENT DURING THE 
             CURRENT ITERATION TO VERIFY THAT THE MOMENT IS SMALL ENOUGH TO BE 
             TREATED AS ZERO. IF NOT, PLEASE USE THE SOLUTION CONTROLS TO RESET 
             THE CRITERION FOR ZERO MOMENT.
          TIME INCREMENT MAY NOW INCREASE TO    1.709E-04

 ITERATION SUMMARY FOR THE INCREMENT:   1 TOTAL ITERATIONS, OF WHICH
   0 ARE SEVERE DISCONTINUITY ITERATIONS AND  1 ARE EQUILIBRIUM ITERATIONS.

 TIME INCREMENT COMPLETED  1.139E-04,  FRACTION OF STEP COMPLETED  3.317E-04
 STEP TIME COMPLETED       3.317E-04,  TOTAL TIME COMPLETED        3.317E-04


  INCREMENT     9 STARTS. ATTEMPT NUMBER  1, TIME INCREMENT  1.709E-04

  NUMBER OF EQUATIONS =     80220     NUMBER OF FLOATING PT. OPERATIONS =  7.65E+09

     CHECK POINT   START OF SOLVER    

     CHECK POINT  END OF SOLVER       

       ELAPSED USER TIME (SEC)      =  0.80000    
       ELAPSED SYSTEM TIME (SEC)    =   0.0000    
       ELAPSED TOTAL CPU TIME (SEC) =  0.80000    
       ELAPSED WALLCLOCK TIME (SEC) =          1
 

 ***WARNING: SOLVER PROBLEM. NUMERICAL SINGULARITY WHEN PROCESSING NODE 
             COMPOSITEPLATE-1.4 D.O.F. 3 RATIO = 13.2486E+12 .

               CONVERGENCE CHECKS FOR EQUILIBRIUM ITERATION     1


 AVERAGE FORCE                      1.037E-02   TIME AVG. FORCE       3.221E-03
 LARGEST RESIDUAL FORCE            -4.182E-10   AT NODE      15410   DOF  2
   INSTANCE: COMPOSITEPLATE-1                                                                
 LARGEST INCREMENT OF DISP.         5.980E-06   AT NODE         10   DOF  2
   INSTANCE: COMPOSITEPLATE-1                                                                
 LARGEST CORRECTION TO DISP.       -1.061E-11   AT NODE         19   DOF  1
   INSTANCE: COMPOSITEPLATE-1                                                                
          THE FORCE     EQUILIBRIUM EQUATIONS HAVE CONVERGED

 AVERAGE MOMENT                     2.104E-19   TIME AVG. MOMENT      1.000E-02
 LARGEST RESIDUAL MOMENT            4.427E-18   AT NODE      12354   DOF  4
   INSTANCE: COMPOSITEPLATE-1                                                                
 LARGEST INCREMENT OF ROTATION     -5.093E-22   AT NODE         10   DOF  5
   INSTANCE: COMPOSITEPLATE-1                                                                
 LARGEST CORRECTION TO ROTATION     9.833E-22   AT NODE        513   DOF  5
   INSTANCE: COMPOSITEPLATE-1                                                                
          THERE IS ZERO MOMENT    EVERYWHERE
 

 ***WARNING: THERE IS ZERO MOMENT EVERYWHERE IN THE MODEL BASED ON THE DEFAULT 
             CRITERION. PLEASE CHECK THE VALUE OF THE AVERAGE MOMENT DURING THE 
             CURRENT ITERATION TO VERIFY THAT THE MOMENT IS SMALL ENOUGH TO BE 
             TREATED AS ZERO. IF NOT, PLEASE USE THE SOLUTION CONTROLS TO RESET 
             THE CRITERION FOR ZERO MOMENT.
          TIME INCREMENT MAY NOW INCREASE TO    2.563E-04

 ITERATION SUMMARY FOR THE INCREMENT:   1 TOTAL ITERATIONS, OF WHICH
   0 ARE SEVERE DISCONTINUITY ITERATIONS AND  1 ARE EQUILIBRIUM ITERATIONS.

 TIME INCREMENT COMPLETED  1.709E-04,  FRACTION OF STEP COMPLETED  5.026E-04
 STEP TIME COMPLETED       5.026E-04,  TOTAL TIME COMPLETED        5.026E-04


  INCREMENT    10 STARTS. ATTEMPT NUMBER  1, TIME INCREMENT  2.563E-04

  NUMBER OF EQUATIONS =     80220     NUMBER OF FLOATING PT. OPERATIONS =  7.65E+09

     CHECK POINT   START OF SOLVER    

     CHECK POINT  END OF SOLVER       

       ELAPSED USER TIME (SEC)      =  0.90000    
       ELAPSED SYSTEM TIME (SEC)    =   0.0000    
       ELAPSED TOTAL CPU TIME (SEC) =  0.90000    
       ELAPSED WALLCLOCK TIME (SEC) =          1
 

 ***WARNING: SOLVER PROBLEM. NUMERICAL SINGULARITY WHEN PROCESSING NODE 
             COMPOSITEPLATE-1.4 D.O.F. 3 RATIO = 20.5600E+12 .

               CONVERGENCE CHECKS FOR EQUILIBRIUM ITERATION     1


 AVERAGE FORCE                      1.566E-02   TIME AVG. FORCE       4.466E-03
 LARGEST RESIDUAL FORCE             4.306E-10   AT NODE      10857   DOF  2
   INSTANCE: COMPOSITEPLATE-1                                                                
 LARGEST INCREMENT OF DISP.         8.970E-06   AT NODE         10   DOF  2
   INSTANCE: COMPOSITEPLATE-1                                                                
 LARGEST CORRECTION TO DISP.        2.388E-11   AT NODE        182   DOF  1
   INSTANCE: COMPOSITEPLATE-1                                                                
          THE FORCE     EQUILIBRIUM EQUATIONS HAVE CONVERGED

 AVERAGE MOMENT                     3.188E-19   TIME AVG. MOMENT      1.000E-02
 LARGEST RESIDUAL MOMENT            5.576E-18   AT NODE       5585   DOF  5
   INSTANCE: COMPOSITEPLATE-1                                                                
 LARGEST INCREMENT OF ROTATION     -1.231E-21   AT NODE         13   DOF  5
   INSTANCE: COMPOSITEPLATE-1                                                                
 LARGEST CORRECTION TO ROTATION    -1.558E-21   AT NODE      12274   DOF  5
   INSTANCE: COMPOSITEPLATE-1                                                                
          THERE IS ZERO MOMENT    EVERYWHERE
 

 ***WARNING: THERE IS ZERO MOMENT EVERYWHERE IN THE MODEL BASED ON THE DEFAULT 
             CRITERION. PLEASE CHECK THE VALUE OF THE AVERAGE MOMENT DURING THE 
             CURRENT ITERATION TO VERIFY THAT THE MOMENT IS SMALL ENOUGH TO BE 
             TREATED AS ZERO. IF NOT, PLEASE USE THE SOLUTION CONTROLS TO RESET 
             THE CRITERION FOR ZERO MOMENT.
          TIME INCREMENT MAY NOW INCREASE TO    3.844E-04

 ITERATION SUMMARY FOR THE INCREMENT:   1 TOTAL ITERATIONS, OF WHICH
   0 ARE SEVERE DISCONTINUITY ITERATIONS AND  1 ARE EQUILIBRIUM ITERATIONS.

 TIME INCREMENT COMPLETED  2.563E-04,  FRACTION OF STEP COMPLETED  7.589E-04
 STEP TIME COMPLETED       7.589E-04,  TOTAL TIME COMPLETED        7.589E-04


  INCREMENT    11 STARTS. ATTEMPT NUMBER  1, TIME INCREMENT  3.844E-04

  NUMBER OF EQUATIONS =     80220     NUMBER OF FLOATING PT. OPERATIONS =  7.65E+09

     CHECK POINT   START OF SOLVER    

     CHECK POINT  END OF SOLVER       

       ELAPSED USER TIME (SEC)      =  0.80000    
       ELAPSED SYSTEM TIME (SEC)    =   0.0000    
       ELAPSED TOTAL CPU TIME (SEC) =  0.80000    
       ELAPSED WALLCLOCK TIME (SEC) =          1
 

 ***WARNING: SOLVER PROBLEM. NUMERICAL SINGULARITY WHEN PROCESSING NODE 
             COMPOSITEPLATE-1.4 D.O.F. 3 RATIO = 83.4469E+12 .

               CONVERGENCE CHECKS FOR EQUILIBRIUM ITERATION     1


 AVERAGE FORCE                      2.360E-02   TIME AVG. FORCE       6.205E-03
 LARGEST RESIDUAL FORCE             3.828E-10   AT NODE      10620   DOF  2
   INSTANCE: COMPOSITEPLATE-1                                                                
 LARGEST INCREMENT OF DISP.         1.346E-05   AT NODE         10   DOF  2
   INSTANCE: COMPOSITEPLATE-1                                                                
 LARGEST CORRECTION TO DISP.       -5.372E-11   AT NODE         19   DOF  1
   INSTANCE: COMPOSITEPLATE-1                                                                
          THE FORCE     EQUILIBRIUM EQUATIONS HAVE CONVERGED

 AVERAGE MOMENT                     4.711E-19   TIME AVG. MOMENT      1.000E-02
 LARGEST RESIDUAL MOMENT           -8.493E-18   AT NODE      12642   DOF  4
   INSTANCE: COMPOSITEPLATE-1                                                                
 LARGEST INCREMENT OF ROTATION     -1.463E-21   AT NODE         10   DOF  5
   INSTANCE: COMPOSITEPLATE-1                                                                
 LARGEST CORRECTION TO ROTATION     2.855E-21   AT NODE         13   DOF  5
   INSTANCE: COMPOSITEPLATE-1                                                                
          THERE IS ZERO MOMENT    EVERYWHERE
 

 ***WARNING: THERE IS ZERO MOMENT EVERYWHERE IN THE MODEL BASED ON THE DEFAULT 
             CRITERION. PLEASE CHECK THE VALUE OF THE AVERAGE MOMENT DURING THE 
             CURRENT ITERATION TO VERIFY THAT THE MOMENT IS SMALL ENOUGH TO BE 
             TREATED AS ZERO. IF NOT, PLEASE USE THE SOLUTION CONTROLS TO RESET 
             THE CRITERION FOR ZERO MOMENT.
          TIME INCREMENT MAY NOW INCREASE TO    5.767E-04

 ITERATION SUMMARY FOR THE INCREMENT:   1 TOTAL ITERATIONS, OF WHICH
   0 ARE SEVERE DISCONTINUITY ITERATIONS AND  1 ARE EQUILIBRIUM ITERATIONS.

 TIME INCREMENT COMPLETED  3.844E-04,  FRACTION OF STEP COMPLETED  1.143E-03
 STEP TIME COMPLETED       1.143E-03,  TOTAL TIME COMPLETED        1.143E-03


  INCREMENT    12 STARTS. ATTEMPT NUMBER  1, TIME INCREMENT  5.767E-04

  NUMBER OF EQUATIONS =     80220     NUMBER OF FLOATING PT. OPERATIONS =  7.65E+09

     CHECK POINT   START OF SOLVER    

     CHECK POINT  END OF SOLVER       

       ELAPSED USER TIME (SEC)      =  0.80000    
       ELAPSED SYSTEM TIME (SEC)    =   0.0000    
       ELAPSED TOTAL CPU TIME (SEC) =  0.80000    
       ELAPSED WALLCLOCK TIME (SEC) =          0
 

 ***WARNING: SOLVER PROBLEM. NUMERICAL SINGULARITY WHEN PROCESSING NODE 
             COMPOSITEPLATE-1.4 D.O.F. 3 RATIO = 26.2645E+12 .

               CONVERGENCE CHECKS FOR EQUILIBRIUM ITERATION     1


 AVERAGE FORCE                      3.550E-02   TIME AVG. FORCE       8.647E-03
 LARGEST RESIDUAL FORCE             3.891E-10   AT NODE      15568   DOF  1
   INSTANCE: COMPOSITEPLATE-1                                                                
 LARGEST INCREMENT OF DISP.         2.018E-05   AT NODE         10   DOF  2
   INSTANCE: COMPOSITEPLATE-1                                                                
 LARGEST CORRECTION TO DISP.        1.209E-10   AT NODE        182   DOF  1
   INSTANCE: COMPOSITEPLATE-1                                                                
          THE FORCE     EQUILIBRIUM EQUATIONS HAVE CONVERGED

 AVERAGE MOMENT                     7.481E-19   TIME AVG. MOMENT      1.000E-02
 LARGEST RESIDUAL MOMENT           -1.217E-17   AT NODE      15193   DOF  4
   INSTANCE: COMPOSITEPLATE-1                                                                
 LARGEST INCREMENT OF ROTATION      2.050E-21   AT NODE        460   DOF  5
   INSTANCE: COMPOSITEPLATE-1                                                                
 LARGEST CORRECTION TO ROTATION    -3.197E-21   AT NODE        408   DOF  5
   INSTANCE: COMPOSITEPLATE-1                                                                
          THERE IS ZERO MOMENT    EVERYWHERE
 

 ***WARNING: THERE IS ZERO MOMENT EVERYWHERE IN THE MODEL BASED ON THE DEFAULT 
             CRITERION. PLEASE CHECK THE VALUE OF THE AVERAGE MOMENT DURING THE 
             CURRENT ITERATION TO VERIFY THAT THE MOMENT IS SMALL ENOUGH TO BE 
             TREATED AS ZERO. IF NOT, PLEASE USE THE SOLUTION CONTROLS TO RESET 
             THE CRITERION FOR ZERO MOMENT.
          TIME INCREMENT MAY NOW INCREASE TO    8.650E-04

 ITERATION SUMMARY FOR THE INCREMENT:   1 TOTAL ITERATIONS, OF WHICH
   0 ARE SEVERE DISCONTINUITY ITERATIONS AND  1 ARE EQUILIBRIUM ITERATIONS.

 TIME INCREMENT COMPLETED  5.767E-04,  FRACTION OF STEP COMPLETED  1.720E-03
 STEP TIME COMPLETED       1.720E-03,  TOTAL TIME COMPLETED        1.720E-03


  INCREMENT    13 STARTS. ATTEMPT NUMBER  1, TIME INCREMENT  8.650E-04

  NUMBER OF EQUATIONS =     80220     NUMBER OF FLOATING PT. OPERATIONS =  7.65E+09

     CHECK POINT   START OF SOLVER    

     CHECK POINT  END OF SOLVER       

       ELAPSED USER TIME (SEC)      =  0.80000    
       ELAPSED SYSTEM TIME (SEC)    =   0.0000    
       ELAPSED TOTAL CPU TIME (SEC) =  0.80000    
       ELAPSED WALLCLOCK TIME (SEC) =          1
 

 ***WARNING: SOLVER PROBLEM. NUMERICAL SINGULARITY WHEN PROCESSING NODE 
             COMPOSITEPLATE-1.4 D.O.F. 3 RATIO = 25.9633E+12 .

               CONVERGENCE CHECKS FOR EQUILIBRIUM ITERATION     1


 AVERAGE FORCE                      5.336E-02   TIME AVG. FORCE       1.209E-02
 LARGEST RESIDUAL FORCE            -4.012E-10   AT NODE      12890   DOF  2
   INSTANCE: COMPOSITEPLATE-1                                                                
 LARGEST INCREMENT OF DISP.         3.027E-05   AT NODE         10   DOF  2
   INSTANCE: COMPOSITEPLATE-1                                                                
 LARGEST CORRECTION TO DISP.       -2.719E-10   AT NODE         19   DOF  1
   INSTANCE: COMPOSITEPLATE-1                                                                
          THE FORCE     EQUILIBRIUM EQUATIONS HAVE CONVERGED

 AVERAGE MOMENT                     1.047E-18   TIME AVG. MOMENT      1.000E-02
 LARGEST RESIDUAL MOMENT           -2.076E-17   AT NODE      12226   DOF  4
   INSTANCE: COMPOSITEPLATE-1                                                                
 LARGEST INCREMENT OF ROTATION     -3.277E-21   AT NODE        459   DOF  5
   INSTANCE: COMPOSITEPLATE-1                                                                
 LARGEST CORRECTION TO ROTATION    -5.536E-21   AT NODE        460   DOF  5
   INSTANCE: COMPOSITEPLATE-1                                                                
          THERE IS ZERO MOMENT    EVERYWHERE
 

 ***WARNING: THERE IS ZERO MOMENT EVERYWHERE IN THE MODEL BASED ON THE DEFAULT 
             CRITERION. PLEASE CHECK THE VALUE OF THE AVERAGE MOMENT DURING THE 
             CURRENT ITERATION TO VERIFY THAT THE MOMENT IS SMALL ENOUGH TO BE 
             TREATED AS ZERO. IF NOT, PLEASE USE THE SOLUTION CONTROLS TO RESET 
             THE CRITERION FOR ZERO MOMENT.
          TIME INCREMENT MAY NOW INCREASE TO    1.297E-03

 ITERATION SUMMARY FOR THE INCREMENT:   1 TOTAL ITERATIONS, OF WHICH
   0 ARE SEVERE DISCONTINUITY ITERATIONS AND  1 ARE EQUILIBRIUM ITERATIONS.

 TIME INCREMENT COMPLETED  8.650E-04,  FRACTION OF STEP COMPLETED  2.585E-03
 STEP TIME COMPLETED       2.585E-03,  TOTAL TIME COMPLETED        2.585E-03


  INCREMENT    14 STARTS. ATTEMPT NUMBER  1, TIME INCREMENT  1.297E-03

  NUMBER OF EQUATIONS =     80220     NUMBER OF FLOATING PT. OPERATIONS =  7.65E+09

     CHECK POINT   START OF SOLVER    

     CHECK POINT  END OF SOLVER       

       ELAPSED USER TIME (SEC)      =   1.0000    
       ELAPSED SYSTEM TIME (SEC)    =   0.0000    
       ELAPSED TOTAL CPU TIME (SEC) =   1.0000    
       ELAPSED WALLCLOCK TIME (SEC) =          1
 

 ***WARNING: SOLVER PROBLEM. NUMERICAL SINGULARITY WHEN PROCESSING NODE 
             COMPOSITEPLATE-1.4 D.O.F. 3 RATIO = 19.4395E+12 .

               CONVERGENCE CHECKS FOR EQUILIBRIUM ITERATION     1


 AVERAGE FORCE                      8.014E-02   TIME AVG. FORCE       1.695E-02
 LARGEST RESIDUAL FORCE             4.167E-10   AT NODE       9423   DOF  1
   INSTANCE: COMPOSITEPLATE-1                                                                
 LARGEST INCREMENT OF DISP.         4.541E-05   AT NODE         10   DOF  2
   INSTANCE: COMPOSITEPLATE-1                                                                
 LARGEST CORRECTION TO DISP.        6.118E-10   AT NODE        182   DOF  1
   INSTANCE: COMPOSITEPLATE-1                                                                
          THE FORCE     EQUILIBRIUM EQUATIONS HAVE CONVERGED

 AVERAGE MOMENT                     1.625E-18   TIME AVG. MOMENT      1.000E-02
 LARGEST RESIDUAL MOMENT            3.241E-17   AT NODE      14194   DOF  4
   INSTANCE: COMPOSITEPLATE-1                                                                
 LARGEST INCREMENT OF ROTATION      4.247E-21   AT NODE        459   DOF  5
   INSTANCE: COMPOSITEPLATE-1                                                                
 LARGEST CORRECTION TO ROTATION     9.162E-21   AT NODE        459   DOF  5
   INSTANCE: COMPOSITEPLATE-1                                                                
          THERE IS ZERO MOMENT    EVERYWHERE
 

 ***WARNING: THERE IS ZERO MOMENT EVERYWHERE IN THE MODEL BASED ON THE DEFAULT 
             CRITERION. PLEASE CHECK THE VALUE OF THE AVERAGE MOMENT DURING THE 
             CURRENT ITERATION TO VERIFY THAT THE MOMENT IS SMALL ENOUGH TO BE 
             TREATED AS ZERO. IF NOT, PLEASE USE THE SOLUTION CONTROLS TO RESET 
             THE CRITERION FOR ZERO MOMENT.
          TIME INCREMENT MAY NOW INCREASE TO    1.946E-03

 ITERATION SUMMARY FOR THE INCREMENT:   1 TOTAL ITERATIONS, OF WHICH
   0 ARE SEVERE DISCONTINUITY ITERATIONS AND  1 ARE EQUILIBRIUM ITERATIONS.

 TIME INCREMENT COMPLETED  1.297E-03,  FRACTION OF STEP COMPLETED  3.882E-03
 STEP TIME COMPLETED       3.882E-03,  TOTAL TIME COMPLETED        3.882E-03


  INCREMENT    15 STARTS. ATTEMPT NUMBER  1, TIME INCREMENT  1.946E-03

  NUMBER OF EQUATIONS =     80220     NUMBER OF FLOATING PT. OPERATIONS =  7.65E+09

     CHECK POINT   START OF SOLVER    

     CHECK POINT  END OF SOLVER       

       ELAPSED USER TIME (SEC)      =  0.90000    
       ELAPSED SYSTEM TIME (SEC)    =   0.0000    
       ELAPSED TOTAL CPU TIME (SEC) =  0.90000    
       ELAPSED WALLCLOCK TIME (SEC) =          1
 

 ***WARNING: SOLVER PROBLEM. NUMERICAL SINGULARITY WHEN PROCESSING NODE 
             COMPOSITEPLATE-1.4 D.O.F. 3 RATIO = 40.4367E+12 .

               CONVERGENCE CHECKS FOR EQUILIBRIUM ITERATION     1


 AVERAGE FORCE                      0.120       TIME AVG. FORCE       2.384E-02
 LARGEST RESIDUAL FORCE             4.222E-10   AT NODE      12644   DOF  2
   INSTANCE: COMPOSITEPLATE-1                                                                
 LARGEST INCREMENT OF DISP.         6.812E-05   AT NODE         10   DOF  2
   INSTANCE: COMPOSITEPLATE-1                                                                
 LARGEST CORRECTION TO DISP.       -1.377E-09   AT NODE         19   DOF  1
   INSTANCE: COMPOSITEPLATE-1                                                                
          THE FORCE     EQUILIBRIUM EQUATIONS HAVE CONVERGED

 AVERAGE MOMENT                     2.454E-18   TIME AVG. MOMENT      1.000E-02
 LARGEST RESIDUAL MOMENT            4.388E-17   AT NODE      12666   DOF  5
   INSTANCE: COMPOSITEPLATE-1                                                                
 LARGEST INCREMENT OF ROTATION     -6.328E-21   AT NODE         15   DOF  5
   INSTANCE: COMPOSITEPLATE-1                                                                
 LARGEST CORRECTION TO ROTATION    -1.062E-20   AT NODE      12660   DOF  5
   INSTANCE: COMPOSITEPLATE-1                                                                
          THERE IS ZERO MOMENT    EVERYWHERE
 

 ***WARNING: THERE IS ZERO MOMENT EVERYWHERE IN THE MODEL BASED ON THE DEFAULT 
             CRITERION. PLEASE CHECK THE VALUE OF THE AVERAGE MOMENT DURING THE 
             CURRENT ITERATION TO VERIFY THAT THE MOMENT IS SMALL ENOUGH TO BE 
             TREATED AS ZERO. IF NOT, PLEASE USE THE SOLUTION CONTROLS TO RESET 
             THE CRITERION FOR ZERO MOMENT.
          TIME INCREMENT MAY NOW INCREASE TO    2.919E-03

 ITERATION SUMMARY FOR THE INCREMENT:   1 TOTAL ITERATIONS, OF WHICH
   0 ARE SEVERE DISCONTINUITY ITERATIONS AND  1 ARE EQUILIBRIUM ITERATIONS.

 TIME INCREMENT COMPLETED  1.946E-03,  FRACTION OF STEP COMPLETED  5.829E-03
 STEP TIME COMPLETED       5.829E-03,  TOTAL TIME COMPLETED        5.829E-03


  INCREMENT    16 STARTS. ATTEMPT NUMBER  1, TIME INCREMENT  2.919E-03

  NUMBER OF EQUATIONS =     80220     NUMBER OF FLOATING PT. OPERATIONS =  7.65E+09

     CHECK POINT   START OF SOLVER    

     CHECK POINT  END OF SOLVER       

       ELAPSED USER TIME (SEC)      =  0.90000    
       ELAPSED SYSTEM TIME (SEC)    =   0.0000    
       ELAPSED TOTAL CPU TIME (SEC) =  0.90000    
       ELAPSED WALLCLOCK TIME (SEC) =          1
 

 ***WARNING: SOLVER PROBLEM. NUMERICAL SINGULARITY WHEN PROCESSING NODE 
             COMPOSITEPLATE-1.4 D.O.F. 3 RATIO = 29.7412E+12 .

               CONVERGENCE CHECKS FOR EQUILIBRIUM ITERATION     1


 AVERAGE FORCE                      0.181       TIME AVG. FORCE       3.363E-02
 LARGEST RESIDUAL FORCE             3.778E-10   AT NODE       3947   DOF  2
   INSTANCE: COMPOSITEPLATE-1                                                                
 LARGEST INCREMENT OF DISP.         1.022E-04   AT NODE         10   DOF  2
   INSTANCE: COMPOSITEPLATE-1                                                                
 LARGEST CORRECTION TO DISP.        3.097E-09   AT NODE        182   DOF  1
   INSTANCE: COMPOSITEPLATE-1                                                                
          THE FORCE     EQUILIBRIUM EQUATIONS HAVE CONVERGED

 AVERAGE MOMENT                     3.615E-18   TIME AVG. MOMENT      1.000E-02
 LARGEST RESIDUAL MOMENT            7.462E-17   AT NODE      12363   DOF  4
   INSTANCE: COMPOSITEPLATE-1                                                                
 LARGEST INCREMENT OF ROTATION     -1.152E-20   AT NODE         13   DOF  4
   INSTANCE: COMPOSITEPLATE-1                                                                
 LARGEST CORRECTION TO ROTATION    -2.073E-20   AT NODE         13   DOF  4
   INSTANCE: COMPOSITEPLATE-1                                                                
          THERE IS ZERO MOMENT    EVERYWHERE
 

 ***WARNING: THERE IS ZERO MOMENT EVERYWHERE IN THE MODEL BASED ON THE DEFAULT 
             CRITERION. PLEASE CHECK THE VALUE OF THE AVERAGE MOMENT DURING THE 
             CURRENT ITERATION TO VERIFY THAT THE MOMENT IS SMALL ENOUGH TO BE 
             TREATED AS ZERO. IF NOT, PLEASE USE THE SOLUTION CONTROLS TO RESET 
             THE CRITERION FOR ZERO MOMENT.
          TIME INCREMENT MAY NOW INCREASE TO    4.379E-03

 ITERATION SUMMARY FOR THE INCREMENT:   1 TOTAL ITERATIONS, OF WHICH
   0 ARE SEVERE DISCONTINUITY ITERATIONS AND  1 ARE EQUILIBRIUM ITERATIONS.

 TIME INCREMENT COMPLETED  2.919E-03,  FRACTION OF STEP COMPLETED  8.748E-03
 STEP TIME COMPLETED       8.748E-03,  TOTAL TIME COMPLETED        8.748E-03


  INCREMENT    17 STARTS. ATTEMPT NUMBER  1, TIME INCREMENT  4.379E-03

  NUMBER OF EQUATIONS =     80220     NUMBER OF FLOATING PT. OPERATIONS =  7.65E+09

     CHECK POINT   START OF SOLVER    

     CHECK POINT  END OF SOLVER       

       ELAPSED USER TIME (SEC)      =  0.90000    
       ELAPSED SYSTEM TIME (SEC)    =   0.0000    
       ELAPSED TOTAL CPU TIME (SEC) =  0.90000    
       ELAPSED WALLCLOCK TIME (SEC) =          1
 

 ***WARNING: SOLVER PROBLEM. NUMERICAL SINGULARITY WHEN PROCESSING NODE 
             COMPOSITEPLATE-1.4 D.O.F. 3 RATIO = 66.2856E+12 .

               CONVERGENCE CHECKS FOR EQUILIBRIUM ITERATION     1


 AVERAGE FORCE                      0.271       TIME AVG. FORCE       4.759E-02
 LARGEST RESIDUAL FORCE            -3.743E-10   AT NODE       9724   DOF  2
   INSTANCE: COMPOSITEPLATE-1                                                                
 LARGEST INCREMENT OF DISP.         1.533E-04   AT NODE         10   DOF  2
   INSTANCE: COMPOSITEPLATE-1                                                                
 LARGEST CORRECTION TO DISP.       -6.967E-09   AT NODE         19   DOF  1
   INSTANCE: COMPOSITEPLATE-1                                                                
          THE FORCE     EQUILIBRIUM RESPONSE WAS LINEAR IN THIS INCREMENT

 AVERAGE MOMENT                     5.767E-18   TIME AVG. MOMENT      1.000E-02
 LARGEST RESIDUAL MOMENT            1.175E-16   AT NODE       9952   DOF  4
   INSTANCE: COMPOSITEPLATE-1                                                                
 LARGEST INCREMENT OF ROTATION      1.856E-20   AT NODE      14204   DOF  5
   INSTANCE: COMPOSITEPLATE-1                                                                
 LARGEST CORRECTION TO ROTATION     3.293E-20   AT NODE      12664   DOF  5
   INSTANCE: COMPOSITEPLATE-1                                                                
          THERE IS ZERO MOMENT    EVERYWHERE
 

 ***WARNING: THERE IS ZERO MOMENT EVERYWHERE IN THE MODEL BASED ON THE DEFAULT 
             CRITERION. PLEASE CHECK THE VALUE OF THE AVERAGE MOMENT DURING THE 
             CURRENT ITERATION TO VERIFY THAT THE MOMENT IS SMALL ENOUGH TO BE 
             TREATED AS ZERO. IF NOT, PLEASE USE THE SOLUTION CONTROLS TO RESET 
             THE CRITERION FOR ZERO MOMENT.
          TIME INCREMENT MAY NOW INCREASE TO    6.568E-03

 ITERATION SUMMARY FOR THE INCREMENT:   1 TOTAL ITERATIONS, OF WHICH
   0 ARE SEVERE DISCONTINUITY ITERATIONS AND  1 ARE EQUILIBRIUM ITERATIONS.

 TIME INCREMENT COMPLETED  4.379E-03,  FRACTION OF STEP COMPLETED  1.313E-02
 STEP TIME COMPLETED       1.313E-02,  TOTAL TIME COMPLETED        1.313E-02


  INCREMENT    18 STARTS. ATTEMPT NUMBER  1, TIME INCREMENT  6.568E-03

  NUMBER OF EQUATIONS =     80220     NUMBER OF FLOATING PT. OPERATIONS =  7.65E+09

     CHECK POINT   START OF SOLVER    

     CHECK POINT  END OF SOLVER       

       ELAPSED USER TIME (SEC)      =  0.90000    
       ELAPSED SYSTEM TIME (SEC)    =   0.0000    
       ELAPSED TOTAL CPU TIME (SEC) =  0.90000    
       ELAPSED WALLCLOCK TIME (SEC) =          1
 

 ***WARNING: SOLVER PROBLEM. NUMERICAL SINGULARITY WHEN PROCESSING NODE 
             COMPOSITEPLATE-1.4 D.O.F. 3 RATIO = 92.6315E+12 .

               CONVERGENCE CHECKS FOR EQUILIBRIUM ITERATION     1


 AVERAGE FORCE                      0.407       TIME AVG. FORCE       6.754E-02
 LARGEST RESIDUAL FORCE            -5.222E-10   AT NODE       7366   DOF  1
   INSTANCE: COMPOSITEPLATE-1                                                                
 LARGEST INCREMENT OF DISP.         2.299E-04   AT NODE         10   DOF  2
   INSTANCE: COMPOSITEPLATE-1                                                                
 LARGEST CORRECTION TO DISP.       -1.567E-08   AT NODE         19   DOF  1
   INSTANCE: COMPOSITEPLATE-1                                                                
          THE FORCE     EQUILIBRIUM RESPONSE WAS LINEAR IN THIS INCREMENT

 AVERAGE MOMENT                     7.985E-18   TIME AVG. MOMENT      1.000E-02
 LARGEST RESIDUAL MOMENT            1.315E-16   AT NODE      15492   DOF  4
   INSTANCE: COMPOSITEPLATE-1                                                                
 LARGEST INCREMENT OF ROTATION     -2.075E-20   AT NODE        503   DOF  5
   INSTANCE: COMPOSITEPLATE-1                                                                
 LARGEST CORRECTION TO ROTATION    -4.170E-20   AT NODE      14176   DOF  5
   INSTANCE: COMPOSITEPLATE-1                                                                
          THERE IS ZERO MOMENT    EVERYWHERE
 

 ***WARNING: THERE IS ZERO MOMENT EVERYWHERE IN THE MODEL BASED ON THE DEFAULT 
             CRITERION. PLEASE CHECK THE VALUE OF THE AVERAGE MOMENT DURING THE 
             CURRENT ITERATION TO VERIFY THAT THE MOMENT IS SMALL ENOUGH TO BE 
             TREATED AS ZERO. IF NOT, PLEASE USE THE SOLUTION CONTROLS TO RESET 
             THE CRITERION FOR ZERO MOMENT.
          TIME INCREMENT MAY NOW INCREASE TO    9.853E-03

 ITERATION SUMMARY FOR THE INCREMENT:   1 TOTAL ITERATIONS, OF WHICH
   0 ARE SEVERE DISCONTINUITY ITERATIONS AND  1 ARE EQUILIBRIUM ITERATIONS.

 TIME INCREMENT COMPLETED  6.568E-03,  FRACTION OF STEP COMPLETED  1.970E-02
 STEP TIME COMPLETED       1.970E-02,  TOTAL TIME COMPLETED        1.970E-02


  INCREMENT    19 STARTS. ATTEMPT NUMBER  1, TIME INCREMENT  9.853E-03

  NUMBER OF EQUATIONS =     80220     NUMBER OF FLOATING PT. OPERATIONS =  7.65E+09

     CHECK POINT   START OF SOLVER    

     CHECK POINT  END OF SOLVER       

       ELAPSED USER TIME (SEC)      =   1.2000    
       ELAPSED SYSTEM TIME (SEC)    =   0.0000    
       ELAPSED TOTAL CPU TIME (SEC) =   1.2000    
       ELAPSED WALLCLOCK TIME (SEC) =          1
 

 ***WARNING: SOLVER PROBLEM. NUMERICAL SINGULARITY WHEN PROCESSING NODE 
             COMPOSITEPLATE-1.4 D.O.F. 3 RATIO = 240.136E+12  .

               CONVERGENCE CHECKS FOR EQUILIBRIUM ITERATION     1


 AVERAGE FORCE                      0.610       TIME AVG. FORCE       9.609E-02
 LARGEST RESIDUAL FORCE             1.737E-09   AT NODE       5519   DOF  1
   INSTANCE: COMPOSITEPLATE-1                                                                
 LARGEST INCREMENT OF DISP.         3.448E-04   AT NODE         10   DOF  2
   INSTANCE: COMPOSITEPLATE-1                                                                
 LARGEST CORRECTION TO DISP.       -3.525E-08   AT NODE         19   DOF  1
   INSTANCE: COMPOSITEPLATE-1                                                                
          THE FORCE     EQUILIBRIUM EQUATIONS HAVE CONVERGED

 AVERAGE MOMENT                     1.249E-17   TIME AVG. MOMENT      1.103E-02
                                                (FROM FORCE     FIELD)
 LARGEST RESIDUAL MOMENT           -2.239E-16   AT NODE      11524   DOF  4
   INSTANCE: COMPOSITEPLATE-1                                                                
 LARGEST INCREMENT OF ROTATION      3.736E-20   AT NODE      14371   DOF  5
   INSTANCE: COMPOSITEPLATE-1                                                                
 LARGEST CORRECTION TO ROTATION     6.148E-20   AT NODE        503   DOF  5
   INSTANCE: COMPOSITEPLATE-1                                                                
          THERE IS ZERO MOMENT    EVERYWHERE
          TIME INCREMENT MAY NOW INCREASE TO    1.478E-02

 ITERATION SUMMARY FOR THE INCREMENT:   1 TOTAL ITERATIONS, OF WHICH
   0 ARE SEVERE DISCONTINUITY ITERATIONS AND  1 ARE EQUILIBRIUM ITERATIONS.

 TIME INCREMENT COMPLETED  9.853E-03,  FRACTION OF STEP COMPLETED  2.955E-02
 STEP TIME COMPLETED       2.955E-02,  TOTAL TIME COMPLETED        2.955E-02


  INCREMENT    20 STARTS. ATTEMPT NUMBER  1, TIME INCREMENT  1.478E-02

  NUMBER OF EQUATIONS =     80220     NUMBER OF FLOATING PT. OPERATIONS =  7.65E+09

     CHECK POINT   START OF SOLVER    

     CHECK POINT  END OF SOLVER       

       ELAPSED USER TIME (SEC)      =   1.0000    
       ELAPSED SYSTEM TIME (SEC)    =   0.0000    
       ELAPSED TOTAL CPU TIME (SEC) =   1.0000    
       ELAPSED WALLCLOCK TIME (SEC) =          1
 

 ***WARNING: SOLVER PROBLEM. NUMERICAL SINGULARITY WHEN PROCESSING NODE 
             COMPOSITEPLATE-1.4 D.O.F. 3 RATIO = 139.441E+12  .

               CONVERGENCE CHECKS FOR EQUILIBRIUM ITERATION     1


 AVERAGE FORCE                      0.915       TIME AVG. FORCE       0.137    
 LARGEST RESIDUAL FORCE             5.779E-09   AT NODE       5519   DOF  1
   INSTANCE: COMPOSITEPLATE-1                                                                
 LARGEST INCREMENT OF DISP.         5.173E-04   AT NODE         10   DOF  2
   INSTANCE: COMPOSITEPLATE-1                                                                
 LARGEST CORRECTION TO DISP.       -7.927E-08   AT NODE         19   DOF  1
   INSTANCE: COMPOSITEPLATE-1                                                                
          THE FORCE     EQUILIBRIUM EQUATIONS HAVE CONVERGED

 AVERAGE MOMENT                     1.854E-17   TIME AVG. MOMENT      1.569E-02
                                                (FROM FORCE     FIELD)
 LARGEST RESIDUAL MOMENT           -3.110E-16   AT NODE      10746   DOF  4
   INSTANCE: COMPOSITEPLATE-1                                                                
 LARGEST INCREMENT OF ROTATION      5.089E-20   AT NODE         13   DOF  4
   INSTANCE: COMPOSITEPLATE-1                                                                
 LARGEST CORRECTION TO ROTATION    -9.475E-20   AT NODE         13   DOF  5
   INSTANCE: COMPOSITEPLATE-1                                                                
          THERE IS ZERO MOMENT    EVERYWHERE
          TIME INCREMENT MAY NOW INCREASE TO    2.217E-02

 ITERATION SUMMARY FOR THE INCREMENT:   1 TOTAL ITERATIONS, OF WHICH
   0 ARE SEVERE DISCONTINUITY ITERATIONS AND  1 ARE EQUILIBRIUM ITERATIONS.

 TIME INCREMENT COMPLETED  1.478E-02,  FRACTION OF STEP COMPLETED  4.433E-02
 STEP TIME COMPLETED       4.433E-02,  TOTAL TIME COMPLETED        4.433E-02


  INCREMENT    21 STARTS. ATTEMPT NUMBER  1, TIME INCREMENT  2.217E-02

  NUMBER OF EQUATIONS =     80220     NUMBER OF FLOATING PT. OPERATIONS =  7.65E+09

     CHECK POINT   START OF SOLVER    

     CHECK POINT  END OF SOLVER       

       ELAPSED USER TIME (SEC)      =   1.0000    
       ELAPSED SYSTEM TIME (SEC)    =   0.0000    
       ELAPSED TOTAL CPU TIME (SEC) =   1.0000    
       ELAPSED WALLCLOCK TIME (SEC) =          1
 

 ***WARNING: SOLVER PROBLEM. NUMERICAL SINGULARITY WHEN PROCESSING NODE 
             COMPOSITEPLATE-1.4 D.O.F. 3 RATIO = 5.51930E+15.

               CONVERGENCE CHECKS FOR EQUILIBRIUM ITERATION     1


 AVERAGE FORCE                       1.37       TIME AVG. FORCE       0.196    
 LARGEST RESIDUAL FORCE             1.939E-08   AT NODE       4990   DOF  1
   INSTANCE: COMPOSITEPLATE-1                                                                
 LARGEST INCREMENT OF DISP.         7.759E-04   AT NODE         10   DOF  2
   INSTANCE: COMPOSITEPLATE-1                                                                
 LARGEST CORRECTION TO DISP.       -1.782E-07   AT NODE         19   DOF  1
   INSTANCE: COMPOSITEPLATE-1                                                                
          THE FORCE     EQUILIBRIUM EQUATIONS HAVE CONVERGED

 AVERAGE MOMENT                     2.754E-17   TIME AVG. MOMENT      2.238E-02
                                                (FROM FORCE     FIELD)
 LARGEST RESIDUAL MOMENT           -4.837E-16   AT NODE      13808   DOF  4
   INSTANCE: COMPOSITEPLATE-1                                                                
 LARGEST INCREMENT OF ROTATION     -8.977E-20   AT NODE      12660   DOF  5
   INSTANCE: COMPOSITEPLATE-1                                                                
 LARGEST CORRECTION TO ROTATION    -1.592E-19   AT NODE      12660   DOF  5
   INSTANCE: COMPOSITEPLATE-1                                                                
          THERE IS ZERO MOMENT    EVERYWHERE
          TIME INCREMENT MAY NOW INCREASE TO    3.325E-02

 ITERATION SUMMARY FOR THE INCREMENT:   1 TOTAL ITERATIONS, OF WHICH
   0 ARE SEVERE DISCONTINUITY ITERATIONS AND  1 ARE EQUILIBRIUM ITERATIONS.

 TIME INCREMENT COMPLETED  2.217E-02,  FRACTION OF STEP COMPLETED  6.650E-02
 STEP TIME COMPLETED       6.650E-02,  TOTAL TIME COMPLETED        6.650E-02


  INCREMENT    22 STARTS. ATTEMPT NUMBER  1, TIME INCREMENT  3.325E-02

  NUMBER OF EQUATIONS =     80220     NUMBER OF FLOATING PT. OPERATIONS =  7.65E+09

     CHECK POINT   START OF SOLVER    

     CHECK POINT  END OF SOLVER       

       ELAPSED USER TIME (SEC)      =  0.90000    
       ELAPSED SYSTEM TIME (SEC)    =  0.10000    
       ELAPSED TOTAL CPU TIME (SEC) =   1.0000    
       ELAPSED WALLCLOCK TIME (SEC) =          1
 

 ***WARNING: SOLVER PROBLEM. NUMERICAL SINGULARITY WHEN PROCESSING NODE 
             COMPOSITEPLATE-1.4 D.O.F. 3 RATIO = 51.1714E+12 .

               CONVERGENCE CHECKS FOR EQUILIBRIUM ITERATION     1


 AVERAGE FORCE                       2.06       TIME AVG. FORCE       0.281    
 LARGEST RESIDUAL FORCE            -6.518E-08   AT NODE       7909   DOF  1
   INSTANCE: COMPOSITEPLATE-1                                                                
 LARGEST INCREMENT OF DISP.         1.164E-03   AT NODE         10   DOF  2
   INSTANCE: COMPOSITEPLATE-1                                                                
 LARGEST CORRECTION TO DISP.       -4.006E-07   AT NODE         19   DOF  1
   INSTANCE: COMPOSITEPLATE-1                                                                
          THE FORCE     EQUILIBRIUM EQUATIONS HAVE CONVERGED

 AVERAGE MOMENT                     4.289E-17   TIME AVG. MOMENT      3.200E-02
                                                (FROM FORCE     FIELD)
 LARGEST RESIDUAL MOMENT            7.395E-16   AT NODE      13810   DOF  4
   INSTANCE: COMPOSITEPLATE-1                                                                
 LARGEST INCREMENT OF ROTATION      2.329E-19   AT NODE      12660   DOF  5
   INSTANCE: COMPOSITEPLATE-1                                                                
 LARGEST CORRECTION TO ROTATION     3.676E-19   AT NODE      12660   DOF  5
   INSTANCE: COMPOSITEPLATE-1                                                                
          THERE IS ZERO MOMENT    EVERYWHERE
          TIME INCREMENT MAY NOW INCREASE TO    4.988E-02

 ITERATION SUMMARY FOR THE INCREMENT:   1 TOTAL ITERATIONS, OF WHICH
   0 ARE SEVERE DISCONTINUITY ITERATIONS AND  1 ARE EQUILIBRIUM ITERATIONS.

 TIME INCREMENT COMPLETED  3.325E-02,  FRACTION OF STEP COMPLETED  0.100    
 STEP TIME COMPLETED       0.100    ,  TOTAL TIME COMPLETED        0.100    


  INCREMENT    23 STARTS. ATTEMPT NUMBER  1, TIME INCREMENT  4.988E-02

  NUMBER OF EQUATIONS =     80220     NUMBER OF FLOATING PT. OPERATIONS =  7.65E+09

     CHECK POINT   START OF SOLVER    

     CHECK POINT  END OF SOLVER       

       ELAPSED USER TIME (SEC)      =  0.90000    
       ELAPSED SYSTEM TIME (SEC)    =   0.0000    
       ELAPSED TOTAL CPU TIME (SEC) =  0.90000    
       ELAPSED WALLCLOCK TIME (SEC) =          1
 

 ***WARNING: SOLVER PROBLEM. NUMERICAL SINGULARITY WHEN PROCESSING NODE 
             COMPOSITEPLATE-1.4 D.O.F. 3 RATIO = 21.8414E+12 .

               CONVERGENCE CHECKS FOR EQUILIBRIUM ITERATION     1


 AVERAGE FORCE                       3.09       TIME AVG. FORCE       0.403    
 LARGEST RESIDUAL FORCE             2.188E-07   AT NODE       5519   DOF  1
   INSTANCE: COMPOSITEPLATE-1                                                                
 LARGEST INCREMENT OF DISP.         1.746E-03   AT NODE         10   DOF  2
   INSTANCE: COMPOSITEPLATE-1                                                                
 LARGEST CORRECTION TO DISP.       -8.998E-07   AT NODE         19   DOF  1
   INSTANCE: COMPOSITEPLATE-1                                                                
          THE FORCE     EQUILIBRIUM EQUATIONS HAVE CONVERGED

 AVERAGE MOMENT                     6.101E-17   TIME AVG. MOMENT      4.584E-02
                                                (FROM FORCE     FIELD)
 LARGEST RESIDUAL MOMENT           -1.091E-15   AT NODE       9683   DOF  4
   INSTANCE: COMPOSITEPLATE-1                                                                
 LARGEST INCREMENT OF ROTATION     -2.822E-19   AT NODE      12660   DOF  5
   INSTANCE: COMPOSITEPLATE-1                                                                
 LARGEST CORRECTION TO ROTATION    -6.316E-19   AT NODE      12660   DOF  5
   INSTANCE: COMPOSITEPLATE-1                                                                
          THERE IS ZERO MOMENT    EVERYWHERE
          TIME INCREMENT MAY NOW INCREASE TO    7.482E-02

 ITERATION SUMMARY FOR THE INCREMENT:   1 TOTAL ITERATIONS, OF WHICH
   0 ARE SEVERE DISCONTINUITY ITERATIONS AND  1 ARE EQUILIBRIUM ITERATIONS.

 TIME INCREMENT COMPLETED  4.988E-02,  FRACTION OF STEP COMPLETED  0.150    
 STEP TIME COMPLETED       0.150    ,  TOTAL TIME COMPLETED        0.150    


  INCREMENT    24 STARTS. ATTEMPT NUMBER  1, TIME INCREMENT  7.482E-02

  NUMBER OF EQUATIONS =     80220     NUMBER OF FLOATING PT. OPERATIONS =  7.65E+09

     CHECK POINT   START OF SOLVER    

     CHECK POINT  END OF SOLVER       

       ELAPSED USER TIME (SEC)      =  0.90000    
       ELAPSED SYSTEM TIME (SEC)    =  0.10000    
       ELAPSED TOTAL CPU TIME (SEC) =   1.0000    
       ELAPSED WALLCLOCK TIME (SEC) =          1
 

 ***WARNING: SOLVER PROBLEM. NUMERICAL SINGULARITY WHEN PROCESSING NODE 
             COMPOSITEPLATE-1.4 D.O.F. 3 RATIO = 21.7529E+12 .

               CONVERGENCE CHECKS FOR EQUILIBRIUM ITERATION     1


 AVERAGE FORCE                       4.64       TIME AVG. FORCE       0.580    
 LARGEST RESIDUAL FORCE             7.323E-07   AT NODE       5519   DOF  1
   INSTANCE: COMPOSITEPLATE-1                                                                
 LARGEST INCREMENT OF DISP.         2.619E-03   AT NODE         10   DOF  2
   INSTANCE: COMPOSITEPLATE-1                                                                
 LARGEST CORRECTION TO DISP.       -2.019E-06   AT NODE         19   DOF  1
   INSTANCE: COMPOSITEPLATE-1                                                                
          THE FORCE     EQUILIBRIUM EQUATIONS HAVE CONVERGED

 AVERAGE MOMENT                     9.644E-17   TIME AVG. MOMENT      6.582E-02
                                                (FROM FORCE     FIELD)
 LARGEST RESIDUAL MOMENT           -1.485E-15   AT NODE      10762   DOF  4
   INSTANCE: COMPOSITEPLATE-1                                                                
 LARGEST INCREMENT OF ROTATION      5.054E-19   AT NODE         13   DOF  5
   INSTANCE: COMPOSITEPLATE-1                                                                
 LARGEST CORRECTION TO ROTATION    -4.676E-19   AT NODE        336   DOF  5
   INSTANCE: COMPOSITEPLATE-1                                                                
          THERE IS ZERO MOMENT    EVERYWHERE
          TIME INCREMENT MAY NOW INCREASE TO    0.112    

 ITERATION SUMMARY FOR THE INCREMENT:   1 TOTAL ITERATIONS, OF WHICH
   0 ARE SEVERE DISCONTINUITY ITERATIONS AND  1 ARE EQUILIBRIUM ITERATIONS.

 TIME INCREMENT COMPLETED  7.482E-02,  FRACTION OF STEP COMPLETED  0.224    
 STEP TIME COMPLETED       0.224    ,  TOTAL TIME COMPLETED        0.224    


  INCREMENT    25 STARTS. ATTEMPT NUMBER  1, TIME INCREMENT  0.112    

  NUMBER OF EQUATIONS =     80220     NUMBER OF FLOATING PT. OPERATIONS =  7.65E+09

     CHECK POINT   START OF SOLVER    

     CHECK POINT  END OF SOLVER       

       ELAPSED USER TIME (SEC)      =  0.90000    
       ELAPSED SYSTEM TIME (SEC)    =   0.0000    
       ELAPSED TOTAL CPU TIME (SEC) =  0.90000    
       ELAPSED WALLCLOCK TIME (SEC) =          1
 

 ***WARNING: SOLVER PROBLEM. NUMERICAL SINGULARITY WHEN PROCESSING NODE 
             COMPOSITEPLATE-1.4 D.O.F. 3 RATIO = 9.01335E+12.

               CONVERGENCE CHECKS FOR EQUILIBRIUM ITERATION     1


 AVERAGE FORCE                       6.97       TIME AVG. FORCE       0.835    
 LARGEST RESIDUAL FORCE             1.047E-03   AT NODE       7623   DOF  1
   INSTANCE: COMPOSITEPLATE-1                                                                
 LARGEST INCREMENT OF DISP.         3.928E-03   AT NODE         10   DOF  2
   INSTANCE: COMPOSITEPLATE-1                                                                
 LARGEST CORRECTION TO DISP.       -3.933E-06   AT NODE         19   DOF  1
   INSTANCE: COMPOSITEPLATE-1                                                                
          THE FORCE     EQUILIBRIUM EQUATIONS HAVE CONVERGED

 AVERAGE MOMENT                     1.368E-16   TIME AVG. MOMENT      9.468E-02
                                                (FROM FORCE     FIELD)
 LARGEST RESIDUAL MOMENT            3.289E-15   AT NODE      15826   DOF  4
   INSTANCE: COMPOSITEPLATE-1                                                                
 LARGEST INCREMENT OF ROTATION     -4.628E-19   AT NODE       2905   DOF  5
   INSTANCE: COMPOSITEPLATE-1                                                                
 LARGEST CORRECTION TO ROTATION    -1.172E-18   AT NODE         13   DOF  5
   INSTANCE: COMPOSITEPLATE-1                                                                
          THERE IS ZERO MOMENT    EVERYWHERE
          TIME INCREMENT MAY NOW INCREASE TO    0.168    

 ITERATION SUMMARY FOR THE INCREMENT:   1 TOTAL ITERATIONS, OF WHICH
   0 ARE SEVERE DISCONTINUITY ITERATIONS AND  1 ARE EQUILIBRIUM ITERATIONS.

 TIME INCREMENT COMPLETED  0.112    ,  FRACTION OF STEP COMPLETED  0.337    
 STEP TIME COMPLETED       0.337    ,  TOTAL TIME COMPLETED        0.337    


  INCREMENT    26 STARTS. ATTEMPT NUMBER  1, TIME INCREMENT  0.168    

  NUMBER OF EQUATIONS =     80220     NUMBER OF FLOATING PT. OPERATIONS =  7.65E+09

     CHECK POINT   START OF SOLVER    

     CHECK POINT  END OF SOLVER       

       ELAPSED USER TIME (SEC)      =   1.1000    
       ELAPSED SYSTEM TIME (SEC)    =   0.0000    
       ELAPSED TOTAL CPU TIME (SEC) =   1.1000    
       ELAPSED WALLCLOCK TIME (SEC) =          1
 

 ***WARNING: SOLVER PROBLEM. NUMERICAL SINGULARITY WHEN PROCESSING NODE 
             COMPOSITEPLATE-1.4 D.O.F. 3 RATIO = 144.936E+12  .

               CONVERGENCE CHECKS FOR EQUILIBRIUM ITERATION     1


 AVERAGE FORCE                       10.5       TIME AVG. FORCE        1.21    
 LARGEST RESIDUAL FORCE            -5.555E-03   AT NODE       5370   DOF  1
   INSTANCE: COMPOSITEPLATE-1                                                                
 LARGEST INCREMENT OF DISP.         5.892E-03   AT NODE         10   DOF  2
   INSTANCE: COMPOSITEPLATE-1                                                                
 LARGEST CORRECTION TO DISP.        3.016E-05   AT NODE       5665   DOF  1
   INSTANCE: COMPOSITEPLATE-1                                                                
          THE FORCE     EQUILIBRIUM EQUATIONS HAVE CONVERGED

 AVERAGE MOMENT                     2.123E-16   TIME AVG. MOMENT      0.136    
                                                (FROM FORCE     FIELD)
 LARGEST RESIDUAL MOMENT           -3.402E-15   AT NODE      12117   DOF  4
   INSTANCE: COMPOSITEPLATE-1                                                                
 LARGEST INCREMENT OF ROTATION     -5.731E-19   AT NODE        401   DOF  5
   INSTANCE: COMPOSITEPLATE-1                                                                
 LARGEST CORRECTION TO ROTATION     1.015E-18   AT NODE         15   DOF  5
   INSTANCE: COMPOSITEPLATE-1                                                                
          THERE IS ZERO MOMENT    EVERYWHERE
          TIME INCREMENT MAY NOW INCREASE TO    0.253    

 ITERATION SUMMARY FOR THE INCREMENT:   1 TOTAL ITERATIONS, OF WHICH
   0 ARE SEVERE DISCONTINUITY ITERATIONS AND  1 ARE EQUILIBRIUM ITERATIONS.

 TIME INCREMENT COMPLETED  0.168    ,  FRACTION OF STEP COMPLETED  0.505    
 STEP TIME COMPLETED       0.505    ,  TOTAL TIME COMPLETED        0.505    


  INCREMENT    27 STARTS. ATTEMPT NUMBER  1, TIME INCREMENT  0.253    

  NUMBER OF EQUATIONS =     80220     NUMBER OF FLOATING PT. OPERATIONS =  7.65E+09

     CHECK POINT   START OF SOLVER    

     CHECK POINT  END OF SOLVER       

       ELAPSED USER TIME (SEC)      =   1.0000    
       ELAPSED SYSTEM TIME (SEC)    =   0.0000    
       ELAPSED TOTAL CPU TIME (SEC) =   1.0000    
       ELAPSED WALLCLOCK TIME (SEC) =          0
 

 ***WARNING: SOLVER PROBLEM. NUMERICAL SINGULARITY WHEN PROCESSING NODE 
             COMPOSITEPLATE-1.4 D.O.F. 3 RATIO = 46.8828E+12 .

               CONVERGENCE CHECKS FOR EQUILIBRIUM ITERATION     1


 AVERAGE FORCE                       15.6       TIME AVG. FORCE        1.74    
 LARGEST RESIDUAL FORCE             1.422E-02   AT NODE       5433   DOF  2
   INSTANCE: COMPOSITEPLATE-1                                                                
 LARGEST INCREMENT OF DISP.         8.838E-03   AT NODE         10   DOF  2
   INSTANCE: COMPOSITEPLATE-1                                                                
 LARGEST CORRECTION TO DISP.       -1.634E-04   AT NODE       5409   DOF  2
   INSTANCE: COMPOSITEPLATE-1                                                                
          FORCE     EQUILIBRIUM NOT ACHIEVED WITHIN TOLERANCE.

 AVERAGE MOMENT                     3.252E-16   TIME AVG. MOMENT      0.197    
                                                (FROM FORCE     FIELD)
 LARGEST RESIDUAL MOMENT           -4.995E-15   AT NODE      15000   DOF  4
   INSTANCE: COMPOSITEPLATE-1                                                                
 LARGEST INCREMENT OF ROTATION      7.047E-19   AT NODE      14424   DOF  5
   INSTANCE: COMPOSITEPLATE-1                                                                
 LARGEST CORRECTION TO ROTATION     1.183E-18   AT NODE        401   DOF  5
   INSTANCE: COMPOSITEPLATE-1                                                                
          THERE IS ZERO MOMENT    EVERYWHERE

  NUMBER OF EQUATIONS =     80220     NUMBER OF FLOATING PT. OPERATIONS =  7.65E+09

     CHECK POINT   START OF SOLVER    

     CHECK POINT  END OF SOLVER       

       ELAPSED USER TIME (SEC)      =  0.90000    
       ELAPSED SYSTEM TIME (SEC)    =   0.0000    
       ELAPSED TOTAL CPU TIME (SEC) =  0.90000    
       ELAPSED WALLCLOCK TIME (SEC) =          1
 

 ***WARNING: SOLVER PROBLEM. NUMERICAL SINGULARITY WHEN PROCESSING NODE 
             COMPOSITEPLATE-1.4 D.O.F. 3 RATIO = 14.4750E+12 .

               CONVERGENCE CHECKS FOR EQUILIBRIUM ITERATION     2


 AVERAGE FORCE                       15.6       TIME AVG. FORCE        1.74    
 LARGEST RESIDUAL FORCE             6.860E-04   AT NODE       5530   DOF  1
   INSTANCE: COMPOSITEPLATE-1                                                                
 LARGEST INCREMENT OF DISP.         8.838E-03   AT NODE         10   DOF  2
   INSTANCE: COMPOSITEPLATE-1                                                                
 LARGEST CORRECTION TO DISP.       -2.607E-06   AT NODE       7476   DOF  2
   INSTANCE: COMPOSITEPLATE-1                                                                
          THE FORCE     EQUILIBRIUM EQUATIONS HAVE CONVERGED

 AVERAGE MOMENT                     3.097E-16   TIME AVG. MOMENT      0.197    
                                                (FROM FORCE     FIELD)
 LARGEST RESIDUAL MOMENT            5.789E-15   AT NODE      12144   DOF  4
   INSTANCE: COMPOSITEPLATE-1                                                                
 LARGEST INCREMENT OF ROTATION     -8.417E-19   AT NODE        354   DOF  5
   INSTANCE: COMPOSITEPLATE-1                                                                
 LARGEST CORRECTION TO ROTATION     1.063E-18   AT NODE        390   DOF  5
   INSTANCE: COMPOSITEPLATE-1                                                                
          THERE IS ZERO MOMENT    EVERYWHERE

 ITERATION SUMMARY FOR THE INCREMENT:   2 TOTAL ITERATIONS, OF WHICH
   0 ARE SEVERE DISCONTINUITY ITERATIONS AND  2 ARE EQUILIBRIUM ITERATIONS.

 TIME INCREMENT COMPLETED  0.253    ,  FRACTION OF STEP COMPLETED  0.758    
 STEP TIME COMPLETED       0.758    ,  TOTAL TIME COMPLETED        0.758    


  INCREMENT    28 STARTS. ATTEMPT NUMBER  1, TIME INCREMENT  0.242    

  NUMBER OF EQUATIONS =     80220     NUMBER OF FLOATING PT. OPERATIONS =  7.65E+09

     CHECK POINT   START OF SOLVER    

     CHECK POINT  END OF SOLVER       

       ELAPSED USER TIME (SEC)      =  0.90000    
       ELAPSED SYSTEM TIME (SEC)    =   0.0000    
       ELAPSED TOTAL CPU TIME (SEC) =  0.90000    
       ELAPSED WALLCLOCK TIME (SEC) =          1
 

 ***WARNING: SOLVER PROBLEM. NUMERICAL SINGULARITY WHEN PROCESSING NODE 
             COMPOSITEPLATE-1.4 D.O.F. 3 RATIO = 99.3451E+12 .

               CONVERGENCE CHECKS FOR EQUILIBRIUM ITERATION     1


 AVERAGE FORCE                       20.1       TIME AVG. FORCE        2.40    
 LARGEST RESIDUAL FORCE              7.42       AT NODE       5483   DOF  1
   INSTANCE: COMPOSITEPLATE-1                                                                
 LARGEST INCREMENT OF DISP.         8.487E-03   AT NODE         10   DOF  2
   INSTANCE: COMPOSITEPLATE-1                                                                
 LARGEST CORRECTION TO DISP.        3.790E-04   AT NODE        169   DOF  1
   INSTANCE: COMPOSITEPLATE-1                                                                
          FORCE     EQUILIBRIUM NOT ACHIEVED WITHIN TOLERANCE.

 AVERAGE MOMENT                     4.302E-16   TIME AVG. MOMENT      0.284    
                                                (FROM FORCE     FIELD)
 LARGEST RESIDUAL MOMENT            5.064E-14   AT NODE       5483   DOF  5
   INSTANCE: COMPOSITEPLATE-1                                                                
 LARGEST INCREMENT OF ROTATION     -2.895E-18   AT NODE       5483   DOF  5
   INSTANCE: COMPOSITEPLATE-1                                                                
 LARGEST CORRECTION TO ROTATION     2.907E-18   AT NODE        166   DOF  5
   INSTANCE: COMPOSITEPLATE-1                                                                
          THERE IS ZERO MOMENT    EVERYWHERE

  NUMBER OF EQUATIONS =     80220     NUMBER OF FLOATING PT. OPERATIONS =  7.65E+09

     CHECK POINT   START OF SOLVER    

     CHECK POINT  END OF SOLVER       

       ELAPSED USER TIME (SEC)      =   1.0000    
       ELAPSED SYSTEM TIME (SEC)    =   0.0000    
       ELAPSED TOTAL CPU TIME (SEC) =   1.0000    
       ELAPSED WALLCLOCK TIME (SEC) =          1
 

 ***WARNING: SOLVER PROBLEM. NUMERICAL SINGULARITY WHEN PROCESSING NODE 
             COMPOSITEPLATE-1.4 D.O.F. 3 RATIO = 161.125E+12  .

               CONVERGENCE CHECKS FOR EQUILIBRIUM ITERATION     2


 AVERAGE FORCE                       20.2       TIME AVG. FORCE        2.40    
 LARGEST RESIDUAL FORCE            -0.110       AT NODE       5062   DOF  2
   INSTANCE: COMPOSITEPLATE-1                                                                
 LARGEST INCREMENT OF DISP.         8.487E-03   AT NODE         10   DOF  2
   INSTANCE: COMPOSITEPLATE-1                                                                
 LARGEST CORRECTION TO DISP.       -7.189E-05   AT NODE        169   DOF  1
   INSTANCE: COMPOSITEPLATE-1                                                                
          FORCE     EQUILIBRIUM NOT ACHIEVED WITHIN TOLERANCE.

 AVERAGE MOMENT                     4.175E-16   TIME AVG. MOMENT      0.284    
                                                (FROM FORCE     FIELD)
 LARGEST RESIDUAL MOMENT           -7.284E-15   AT NODE      13937   DOF  4
   INSTANCE: COMPOSITEPLATE-1                                                                
 LARGEST INCREMENT OF ROTATION      4.461E-18   AT NODE        164   DOF  5
   INSTANCE: COMPOSITEPLATE-1                                                                
 LARGEST CORRECTION TO ROTATION     5.691E-18   AT NODE        164   DOF  5
   INSTANCE: COMPOSITEPLATE-1                                                                
          THERE IS ZERO MOMENT    EVERYWHERE

  NUMBER OF EQUATIONS =     80220     NUMBER OF FLOATING PT. OPERATIONS =  7.65E+09

     CHECK POINT   START OF SOLVER    

     CHECK POINT  END OF SOLVER       

       ELAPSED USER TIME (SEC)      =   1.0000    
       ELAPSED SYSTEM TIME (SEC)    =   0.0000    
       ELAPSED TOTAL CPU TIME (SEC) =   1.0000    
       ELAPSED WALLCLOCK TIME (SEC) =          1
 

 ***WARNING: SOLVER PROBLEM. NUMERICAL SINGULARITY WHEN PROCESSING NODE 
             COMPOSITEPLATE-1.4 D.O.F. 3 RATIO = 16.6668E+12 .

               CONVERGENCE CHECKS FOR EQUILIBRIUM ITERATION     3


 AVERAGE FORCE                       20.2       TIME AVG. FORCE        2.40    
 LARGEST RESIDUAL FORCE             2.032E-03   AT NODE         74   DOF  2
   INSTANCE: COMPOSITEPLATE-1                                                                
 LARGEST INCREMENT OF DISP.         8.487E-03   AT NODE         10   DOF  2
   INSTANCE: COMPOSITEPLATE-1                                                                
 LARGEST CORRECTION TO DISP.       -1.159E-06   AT NODE        169   DOF  2
   INSTANCE: COMPOSITEPLATE-1                                                                
          THE FORCE     EQUILIBRIUM EQUATIONS HAVE CONVERGED

 AVERAGE MOMENT                     4.151E-16   TIME AVG. MOMENT      0.284    
                                                (FROM FORCE     FIELD)
 LARGEST RESIDUAL MOMENT           -7.568E-15   AT NODE      11156   DOF  4
   INSTANCE: COMPOSITEPLATE-1                                                                
 LARGEST INCREMENT OF ROTATION     -3.990E-18   AT NODE       7401   DOF  5
   INSTANCE: COMPOSITEPLATE-1                                                                
 LARGEST CORRECTION TO ROTATION    -6.810E-18   AT NODE        164   DOF  5
   INSTANCE: COMPOSITEPLATE-1                                                                
          THERE IS ZERO MOMENT    EVERYWHERE

 ITERATION SUMMARY FOR THE INCREMENT:   3 TOTAL ITERATIONS, OF WHICH
   0 ARE SEVERE DISCONTINUITY ITERATIONS AND  3 ARE EQUILIBRIUM ITERATIONS.

 TIME INCREMENT COMPLETED  0.242    ,  FRACTION OF STEP COMPLETED   1.00    
 STEP TIME COMPLETED        1.00    ,  TOTAL TIME COMPLETED         1.00    


          THE ANALYSIS HAS BEEN COMPLETED



     ANALYSIS SUMMARY:
     TOTAL OF         28  INCREMENTS
                       0  CUTBACKS IN AUTOMATIC INCREMENTATION
                      32  ITERATIONS INCLUDING CONTACT ITERATIONS IF PRESENT
                      32  PASSES THROUGH THE EQUATION SOLVER OF WHICH 
                      32  INVOLVE MATRIX DECOMPOSITION, INCLUDING
                       0  DECOMPOSITION(S) OF THE MASS MATRIX
                       1  REORDERING OF EQUATIONS TO MINIMIZE WAVEFRONT
                       0  ADDITIONAL RESIDUAL EVALUATIONS FOR LINE SEARCHES
                       0  ADDITIONAL OPERATOR EVALUATIONS FOR LINE SEARCHES
                       2  WARNING MESSAGES DURING USER INPUT PROCESSING
                      53  WARNING MESSAGES DURING ANALYSIS
                      34  ANALYSIS WARNINGS ARE NUMERICAL PROBLEM MESSAGES
                       0  ANALYSIS WARNINGS ARE NEGATIVE EIGENVALUE MESSAGES
                       0  ERROR MESSAGES



     JOB TIME SUMMARY
       USER TIME (SEC)      =   105.90    
       SYSTEM TIME (SEC)    =   4.7000    
       TOTAL CPU TIME (SEC) =   110.60    
       WALLCLOCK TIME (SEC) =        111
