1

   Abaqus 3DEXPERIENCE R2017x                                  Date 23-Apr-2019   Time 13:50:30
   For use by Supplied by Team-SolidSQUAD under license from Dassault Systemes or its subsidiary.

                                                                                 
                                                                                 
 STEP    1     INCREMENT     1     STEP TIME    0.00    


                        S T E P       1     S T A T I C   A N A L Y S I S


                                                                                          

     AUTOMATIC TIME CONTROL WITH -
          A SUGGESTED INITIAL TIME INCREMENT OF                1.000E-05
          AND A TOTAL TIME PERIOD OF                            1.00    
          THE MINIMUM TIME INCREMENT ALLOWED IS                1.000E-20
          THE MAXIMUM TIME INCREMENT ALLOWED IS                 1.00    

     LINEAR EQUATION SOLVER TYPE         DIRECT SPARSE

 CONVERGENCE TOLERANCE PARAMETERS FOR FORCE    
     CRITERION FOR RESIDUAL FORCE     FOR A NONLINEAR PROBLEM          5.000E-03
     CRITERION FOR DISP.    CORRECTION IN A NONLINEAR PROBLEM          1.000E-02
     INITIAL VALUE OF TIME AVERAGE FORCE                               1.000E-02
     AVERAGE FORCE     IS TIME AVERAGE FORCE    
     ALTERNATE CRIT. FOR RESIDUAL FORCE     FOR A NONLINEAR PROBLEM    2.000E-02
     CRITERION FOR ZERO FORCE     RELATIVE TO TIME AVRG. FORCE         1.000E-05
     CRITERION FOR RESIDUAL FORCE     WHEN THERE IS ZERO FLUX          1.000E-05
     CRITERION FOR DISP.    CORRECTION WHEN THERE IS ZERO FLUX         1.000E-03
     CRITERION FOR RESIDUAL FORCE     FOR A LINEAR INCREMENT           1.000E-08
     FIELD CONVERSION RATIO                                             1.00    
     CRITERION FOR ZERO FORCE     REL. TO TIME AVRG. MAX. FORCE        1.000E-05
     CRITERION FOR ZERO DISP.    RELATIVE TO CHARACTERISTIC LENGTH     1.000E-08

 CONVERGENCE TOLERANCE PARAMETERS FOR MOMENT   
     CRITERION FOR RESIDUAL MOMENT    FOR A NONLINEAR PROBLEM          5.000E-03
     CRITERION FOR ROTATION CORRECTION IN A NONLINEAR PROBLEM          1.000E-02
     INITIAL VALUE OF TIME AVERAGE MOMENT                              1.000E-02
     AVERAGE MOMENT    IS TIME AVERAGE MOMENT   
     ALTERNATE CRIT. FOR RESIDUAL MOMENT    FOR A NONLINEAR PROBLEM    2.000E-02
     CRITERION FOR ZERO MOMENT    RELATIVE TO TIME AVRG. MOMENT        1.000E-05
     CRITERION FOR RESIDUAL MOMENT    WHEN THERE IS ZERO FLUX          1.000E-05
     CRITERION FOR ROTATION CORRECTION WHEN THERE IS ZERO FLUX         1.000E-03
     CRITERION FOR RESIDUAL MOMENT    FOR A LINEAR INCREMENT           1.000E-08
     FIELD CONVERSION RATIO                                             1.00    
     CRITERION FOR ZERO MOMENT    REL. TO TIME AVRG. MAX. MOMENT       1.000E-05

     VOLUMETRIC STRAIN COMPATIBILITY TOLERANCE FOR HYBRID SOLIDS       1.000E-05
     AXIAL STRAIN COMPATIBILITY TOLERANCE FOR HYBRID BEAMS             1.000E-05
     TRANS. SHEAR STRAIN COMPATIBILITY TOLERANCE FOR HYBRID BEAMS      1.000E-05
     SOFT CONTACT CONSTRAINT COMPATIBILITY TOLERANCE FOR P>P0          5.000E-03
     SOFT CONTACT CONSTRAINT COMPATIBILITY TOLERANCE FOR P=0.0         0.100    
     CONTACT FORCE ERROR TOLERANCE FOR CONVERT SDI=YES                 1.00    
     DISPLACEMENT COMPATIBILITY TOLERANCE FOR DCOUP ELEMENTS           1.000E-05
     ROTATION COMPATIBILITY TOLERANCE FOR DCOUP ELEMENTS               1.000E-05

 EQUILIBRIUM WILL BE CHECKED FOR SEVERE DISCONTINUITY ITERATIONS

 TIME INCREMENTATION CONTROL PARAMETERS:
     FIRST EQUILIBRIUM ITERATION FOR CONSECUTIVE DIVERGENCE CHECK              4
     EQUILIBRIUM ITERATION AT WHICH LOG. CONVERGENCE RATE CHECK BEGINS         8
     EQUILIBRIUM ITERATION AFTER WHICH ALTERNATE RESIDUAL IS USED              9
     MAXIMUM EQUILIBRIUM ITERATIONS ALLOWED                                   16
     EQUILIBRIUM ITERATION COUNT FOR CUT-BACK IN NEXT INCREMENT               10
     MAXIMUM EQUILIB. ITERS IN TWO INCREMENTS FOR TIME INCREMENT INCREASE      4
     MAXIMUM ITERATIONS FOR SEVERE DISCONTINUITIES                            50
     MAXIMUM ATTEMPTS ALLOWED IN AN INCREMENT                                  5
     MAXIMUM DISCON. ITERS IN TWO INCREMENTS FOR TIME INCREMENT INCREASE      50
     MAXIMUM CONTACT AUGMENTATIONS FOR *SURFACE BEHAVIOR,AUGMENTED LAGRANGE   50
     CUT-BACK FACTOR AFTER DIVERGENCE                                 0.2500    
     CUT-BACK FACTOR FOR TOO SLOW CONVERGENCE                         0.5000    
     CUT-BACK FACTOR AFTER TOO MANY EQUILIBRIUM ITERATIONS            0.7500    
     CUT-BACK FACTOR AFTER TOO MANY SEVERE DISCONTINUITY ITERATIONS   0.2500    
     CUT-BACK FACTOR AFTER PROBLEMS IN ELEMENT ASSEMBLY               0.2500    
     INCREASE FACTOR AFTER TWO INCREMENTS THAT CONVERGE QUICKLY        1.500    
     MAX. TIME INCREMENT INCREASE FACTOR ALLOWED                       1.500    
     MAX. TIME INCREMENT INCREASE FACTOR ALLOWED (DYNAMICS)            1.250    
     MAX. TIME INCREMENT INCREASE FACTOR ALLOWED (DIFFUSION)           2.000    
     MINIMUM TIME INCREMENT RATIO FOR EXTRAPOLATION TO OCCUR          0.1000    
     MAX. RATIO OF TIME INCREMENT TO STABILITY LIMIT                   1.000    
     FRACTION OF STABILITY LIMIT FOR NEW TIME INCREMENT               0.9500    
     TIME INCREMENT INCREASE FACTOR BEFORE A TIME POINT                1.000    
     GLOBAL STABILIZATION CONTROL IS NOT USED

          PRINT OF INCREMENT NUMBER, TIME, ETC., EVERY    1  INCREMENTS

     THE MAXIMUM NUMBER OF INCREMENTS IN THIS STEP IS                    1000

          LARGE DISPLACEMENT THEORY WILL BE USED

          UNSYMMETRIC MATRIX STORAGE AND SOLUTION WILL BE USED

     LINEAR EXTRAPOLATION WILL BE USED

     CHARACTERISTIC ELEMENT LENGTH     0.163    

     DETAILS REGARDING ACTUAL SOLUTION WAVEFRONT REQUESTED

     DETAILED OUTPUT OF DIAGNOSTICS TO DATABASE REQUESTED

     PRINT OF INCREMENT NUMBER, TIME, ETC., TO THE MESSAGE FILE EVERY     1  INCREMENTS

     COLLECTING MODEL CONSTRAINT INFORMATION FOR OVERCONSTRAINT CHECKS

     COLLECTING STEP CONSTRAINT INFORMATION FOR OVERCONSTRAINT CHECKS


  INCREMENT     1 STARTS. ATTEMPT NUMBER  1, TIME INCREMENT  1.000E-05

  NUMBER OF EQUATIONS =     80220     NUMBER OF FLOATING PT. OPERATIONS =  7.65E+09

     CHECK POINT   START OF SOLVER    

     CHECK POINT  END OF SOLVER       

       ELAPSED USER TIME (SEC)      =  0.90000    
       ELAPSED SYSTEM TIME (SEC)    =   0.0000    
       ELAPSED TOTAL CPU TIME (SEC) =  0.90000    
       ELAPSED WALLCLOCK TIME (SEC) =          1
 

 ***WARNING: SOLVER PROBLEM. NUMERICAL SINGULARITY WHEN PROCESSING NODE 
             COMPOSITEPLATE-1.4 D.O.F. 3 RATIO = 49.6497E+12 .
 

 ***WARNING: SOLVER PROBLEM. NUMERICAL SINGULARITY WHEN PROCESSING NODE 
             COMPOSITEPLATE-1.4 D.O.F. 4 RATIO = 1.51161E+12.
 

 ***WARNING: SOLVER PROBLEM. NUMERICAL SINGULARITY WHEN PROCESSING NODE 
             COMPOSITEPLATE-1.4 D.O.F. 5 RATIO = 5.32393E+12.

               CONVERGENCE CHECKS FOR EQUILIBRIUM ITERATION     1


 AVERAGE FORCE                      3.494E-04   TIME AVG. FORCE       3.494E-04
 LARGEST RESIDUAL FORCE            -3.506E-10   AT NODE       8955   DOF  2
   INSTANCE: COMPOSITEPLATE-1                                                                
 LARGEST INCREMENT OF DISP.         8.500E-07   AT NODE          9   DOF  1
   INSTANCE: COMPOSITEPLATE-1                                                                
 LARGEST CORRECTION TO DISP.        8.500E-07   AT NODE          9   DOF  1
   INSTANCE: COMPOSITEPLATE-1                                                                
          DISP.    CORRECTION TOO LARGE COMPARED TO DISP.    INCREMENT

 AVERAGE MOMENT                     4.761E-21   TIME AVG. MOMENT      1.000E-02
 LARGEST RESIDUAL MOMENT           -8.596E-20   AT NODE      14092   DOF  4
   INSTANCE: COMPOSITEPLATE-1                                                                
 LARGEST INCREMENT OF ROTATION     -1.111E-22   AT NODE        331   DOF  5
   INSTANCE: COMPOSITEPLATE-1                                                                
 LARGEST CORRECTION TO ROTATION    -1.111E-22   AT NODE        331   DOF  5
   INSTANCE: COMPOSITEPLATE-1                                                                
          THERE IS ZERO MOMENT    EVERYWHERE
 

 ***WARNING: THERE IS ZERO MOMENT EVERYWHERE IN THE MODEL BASED ON THE DEFAULT 
             CRITERION. PLEASE CHECK THE VALUE OF THE AVERAGE MOMENT DURING THE 
             CURRENT ITERATION TO VERIFY THAT THE MOMENT IS SMALL ENOUGH TO BE 
             TREATED AS ZERO. IF NOT, PLEASE USE THE SOLUTION CONTROLS TO RESET 
             THE CRITERION FOR ZERO MOMENT.

  NUMBER OF EQUATIONS =     80220     NUMBER OF FLOATING PT. OPERATIONS =  7.65E+09

     CHECK POINT   START OF SOLVER    

     CHECK POINT  END OF SOLVER       

       ELAPSED USER TIME (SEC)      =  0.90000    
       ELAPSED SYSTEM TIME (SEC)    =  0.10000    
       ELAPSED TOTAL CPU TIME (SEC) =   1.0000    
       ELAPSED WALLCLOCK TIME (SEC) =          1
 

 ***WARNING: SOLVER PROBLEM. NUMERICAL SINGULARITY WHEN PROCESSING NODE 
             COMPOSITEPLATE-1.4 D.O.F. 3 RATIO = 19.4492E+12 .

               CONVERGENCE CHECKS FOR EQUILIBRIUM ITERATION     2


 AVERAGE FORCE                      3.494E-04   TIME AVG. FORCE       3.494E-04
 LARGEST RESIDUAL FORCE            -4.021E-10   AT NODE      10545   DOF  2
   INSTANCE: COMPOSITEPLATE-1                                                                
 LARGEST INCREMENT OF DISP.         8.500E-07   AT NODE          9   DOF  1
   INSTANCE: COMPOSITEPLATE-1                                                                
 LARGEST CORRECTION TO DISP.        1.817E-13   AT NODE       1884   DOF  1
   INSTANCE: COMPOSITEPLATE-1                                                                
          THE FORCE     EQUILIBRIUM EQUATIONS HAVE CONVERGED

 AVERAGE MOMENT                     7.849E-21   TIME AVG. MOMENT      1.000E-02
 LARGEST RESIDUAL MOMENT           -1.642E-19   AT NODE      11418   DOF  4
   INSTANCE: COMPOSITEPLATE-1                                                                
 LARGEST INCREMENT OF ROTATION     -8.261E-23   AT NODE         10   DOF  4
   INSTANCE: COMPOSITEPLATE-1                                                                
 LARGEST CORRECTION TO ROTATION     1.041E-22   AT NODE        445   DOF  5
   INSTANCE: COMPOSITEPLATE-1                                                                
          THERE IS ZERO MOMENT    EVERYWHERE
 

 ***WARNING: THERE IS ZERO MOMENT EVERYWHERE IN THE MODEL BASED ON THE DEFAULT 
             CRITERION. PLEASE CHECK THE VALUE OF THE AVERAGE MOMENT DURING THE 
             CURRENT ITERATION TO VERIFY THAT THE MOMENT IS SMALL ENOUGH TO BE 
             TREATED AS ZERO. IF NOT, PLEASE USE THE SOLUTION CONTROLS TO RESET 
             THE CRITERION FOR ZERO MOMENT.

 ITERATION SUMMARY FOR THE INCREMENT:   2 TOTAL ITERATIONS, OF WHICH
   0 ARE SEVERE DISCONTINUITY ITERATIONS AND  2 ARE EQUILIBRIUM ITERATIONS.

 TIME INCREMENT COMPLETED  1.000E-05,  FRACTION OF STEP COMPLETED  1.000E-05
 STEP TIME COMPLETED       1.000E-05,  TOTAL TIME COMPLETED        1.000E-05


  INCREMENT     2 STARTS. ATTEMPT NUMBER  1, TIME INCREMENT  1.000E-05

  NUMBER OF EQUATIONS =     80220     NUMBER OF FLOATING PT. OPERATIONS =  7.65E+09

     CHECK POINT   START OF SOLVER    

     CHECK POINT  END OF SOLVER       

       ELAPSED USER TIME (SEC)      =   1.0000    
       ELAPSED SYSTEM TIME (SEC)    =   0.0000    
       ELAPSED TOTAL CPU TIME (SEC) =   1.0000    
       ELAPSED WALLCLOCK TIME (SEC) =          1
 

 ***WARNING: SOLVER PROBLEM. NUMERICAL SINGULARITY WHEN PROCESSING NODE 
             COMPOSITEPLATE-1.4 D.O.F. 3 RATIO = 27.1077E+12 .

               CONVERGENCE CHECKS FOR EQUILIBRIUM ITERATION     1


 AVERAGE FORCE                      1.055E-03   TIME AVG. FORCE       7.023E-04
 LARGEST RESIDUAL FORCE             4.020E-10   AT NODE      10603   DOF  2
   INSTANCE: COMPOSITEPLATE-1                                                                
 LARGEST INCREMENT OF DISP.         8.500E-07   AT NODE          9   DOF  1
   INSTANCE: COMPOSITEPLATE-1                                                                
 LARGEST CORRECTION TO DISP.       -3.633E-13   AT NODE       6450   DOF  1
   INSTANCE: COMPOSITEPLATE-1                                                                
          THE FORCE     EQUILIBRIUM EQUATIONS HAVE CONVERGED

 AVERAGE MOMENT                     1.871E-20   TIME AVG. MOMENT      1.000E-02
 LARGEST RESIDUAL MOMENT            3.363E-19   AT NODE      13845   DOF  4
   INSTANCE: COMPOSITEPLATE-1                                                                
 LARGEST INCREMENT OF ROTATION     -6.614E-23   AT NODE        473   DOF  5
   INSTANCE: COMPOSITEPLATE-1                                                                
 LARGEST CORRECTION TO ROTATION    -1.220E-22   AT NODE         16   DOF  4
   INSTANCE: COMPOSITEPLATE-1                                                                
          THERE IS ZERO MOMENT    EVERYWHERE
 

 ***WARNING: THERE IS ZERO MOMENT EVERYWHERE IN THE MODEL BASED ON THE DEFAULT 
             CRITERION. PLEASE CHECK THE VALUE OF THE AVERAGE MOMENT DURING THE 
             CURRENT ITERATION TO VERIFY THAT THE MOMENT IS SMALL ENOUGH TO BE 
             TREATED AS ZERO. IF NOT, PLEASE USE THE SOLUTION CONTROLS TO RESET 
             THE CRITERION FOR ZERO MOMENT.
          TIME INCREMENT MAY NOW INCREASE TO    1.500E-05

 ITERATION SUMMARY FOR THE INCREMENT:   1 TOTAL ITERATIONS, OF WHICH
   0 ARE SEVERE DISCONTINUITY ITERATIONS AND  1 ARE EQUILIBRIUM ITERATIONS.

 TIME INCREMENT COMPLETED  1.000E-05,  FRACTION OF STEP COMPLETED  2.000E-05
 STEP TIME COMPLETED       2.000E-05,  TOTAL TIME COMPLETED        2.000E-05


  INCREMENT     3 STARTS. ATTEMPT NUMBER  1, TIME INCREMENT  1.500E-05

  NUMBER OF EQUATIONS =     80220     NUMBER OF FLOATING PT. OPERATIONS =  7.65E+09

     CHECK POINT   START OF SOLVER    

     CHECK POINT  END OF SOLVER       

       ELAPSED USER TIME (SEC)      =  0.90000    
       ELAPSED SYSTEM TIME (SEC)    =   0.0000    
       ELAPSED TOTAL CPU TIME (SEC) =  0.90000    
       ELAPSED WALLCLOCK TIME (SEC) =          0
 

 ***WARNING: SOLVER PROBLEM. NUMERICAL SINGULARITY WHEN PROCESSING NODE 
             COMPOSITEPLATE-1.4 D.O.F. 3 RATIO = 24.8016E+12 .

               CONVERGENCE CHECKS FOR EQUILIBRIUM ITERATION     1


 AVERAGE FORCE                      1.847E-03   TIME AVG. FORCE       1.084E-03
 LARGEST RESIDUAL FORCE            -3.707E-10   AT NODE       9025   DOF  2
   INSTANCE: COMPOSITEPLATE-1                                                                
 LARGEST INCREMENT OF DISP.         1.275E-06   AT NODE          9   DOF  1
   INSTANCE: COMPOSITEPLATE-1                                                                
 LARGEST CORRECTION TO DISP.        6.815E-13   AT NODE       6504   DOF  1
   INSTANCE: COMPOSITEPLATE-1                                                                
          THE FORCE     EQUILIBRIUM EQUATIONS HAVE CONVERGED

 AVERAGE MOMENT                     3.417E-20   TIME AVG. MOMENT      1.000E-02
 LARGEST RESIDUAL MOMENT           -6.109E-19   AT NODE       3507   DOF  4
   INSTANCE: COMPOSITEPLATE-1                                                                
 LARGEST INCREMENT OF ROTATION     -1.102E-22   AT NODE        492   DOF  5
   INSTANCE: COMPOSITEPLATE-1                                                                
 LARGEST CORRECTION TO ROTATION    -1.382E-22   AT NODE      12133   DOF  5
   INSTANCE: COMPOSITEPLATE-1                                                                
          THERE IS ZERO MOMENT    EVERYWHERE
 

 ***WARNING: THERE IS ZERO MOMENT EVERYWHERE IN THE MODEL BASED ON THE DEFAULT 
             CRITERION. PLEASE CHECK THE VALUE OF THE AVERAGE MOMENT DURING THE 
             CURRENT ITERATION TO VERIFY THAT THE MOMENT IS SMALL ENOUGH TO BE 
             TREATED AS ZERO. IF NOT, PLEASE USE THE SOLUTION CONTROLS TO RESET 
             THE CRITERION FOR ZERO MOMENT.
          TIME INCREMENT MAY NOW INCREASE TO    2.250E-05

 ITERATION SUMMARY FOR THE INCREMENT:   1 TOTAL ITERATIONS, OF WHICH
   0 ARE SEVERE DISCONTINUITY ITERATIONS AND  1 ARE EQUILIBRIUM ITERATIONS.

 TIME INCREMENT COMPLETED  1.500E-05,  FRACTION OF STEP COMPLETED  3.500E-05
 STEP TIME COMPLETED       3.500E-05,  TOTAL TIME COMPLETED        3.500E-05


  INCREMENT     4 STARTS. ATTEMPT NUMBER  1, TIME INCREMENT  2.250E-05

  NUMBER OF EQUATIONS =     80220     NUMBER OF FLOATING PT. OPERATIONS =  7.65E+09

     CHECK POINT   START OF SOLVER    

     CHECK POINT  END OF SOLVER       

       ELAPSED USER TIME (SEC)      =  0.90000    
       ELAPSED SYSTEM TIME (SEC)    =   0.0000    
       ELAPSED TOTAL CPU TIME (SEC) =  0.90000    
       ELAPSED WALLCLOCK TIME (SEC) =          1
 

 ***WARNING: SOLVER PROBLEM. NUMERICAL SINGULARITY WHEN PROCESSING NODE 
             COMPOSITEPLATE-1.4 D.O.F. 3 RATIO = 29.0643E+12 .

               CONVERGENCE CHECKS FOR EQUILIBRIUM ITERATION     1


 AVERAGE FORCE                      3.034E-03   TIME AVG. FORCE       1.571E-03
 LARGEST RESIDUAL FORCE             4.176E-10   AT NODE      10850   DOF  2
   INSTANCE: COMPOSITEPLATE-1                                                                
 LARGEST INCREMENT OF DISP.         1.913E-06   AT NODE          9   DOF  1
   INSTANCE: COMPOSITEPLATE-1                                                                
 LARGEST CORRECTION TO DISP.        1.532E-12   AT NODE        182   DOF  1
   INSTANCE: COMPOSITEPLATE-1                                                                
          THE FORCE     EQUILIBRIUM EQUATIONS HAVE CONVERGED

 AVERAGE MOMENT                     5.776E-20   TIME AVG. MOMENT      1.000E-02
 LARGEST RESIDUAL MOMENT            1.008E-18   AT NODE      14759   DOF  4
   INSTANCE: COMPOSITEPLATE-1                                                                
 LARGEST INCREMENT OF ROTATION     -2.707E-22   AT NODE         13   DOF  5
   INSTANCE: COMPOSITEPLATE-1                                                                
 LARGEST CORRECTION TO ROTATION    -4.247E-22   AT NODE         13   DOF  5
   INSTANCE: COMPOSITEPLATE-1                                                                
          THERE IS ZERO MOMENT    EVERYWHERE
 

 ***WARNING: THERE IS ZERO MOMENT EVERYWHERE IN THE MODEL BASED ON THE DEFAULT 
             CRITERION. PLEASE CHECK THE VALUE OF THE AVERAGE MOMENT DURING THE 
             CURRENT ITERATION TO VERIFY THAT THE MOMENT IS SMALL ENOUGH TO BE 
             TREATED AS ZERO. IF NOT, PLEASE USE THE SOLUTION CONTROLS TO RESET 
             THE CRITERION FOR ZERO MOMENT.
          TIME INCREMENT MAY NOW INCREASE TO    3.375E-05

 ITERATION SUMMARY FOR THE INCREMENT:   1 TOTAL ITERATIONS, OF WHICH
   0 ARE SEVERE DISCONTINUITY ITERATIONS AND  1 ARE EQUILIBRIUM ITERATIONS.

 TIME INCREMENT COMPLETED  2.250E-05,  FRACTION OF STEP COMPLETED  5.750E-05
 STEP TIME COMPLETED       5.750E-05,  TOTAL TIME COMPLETED        5.750E-05


  INCREMENT     5 STARTS. ATTEMPT NUMBER  1, TIME INCREMENT  3.375E-05

  NUMBER OF EQUATIONS =     80220     NUMBER OF FLOATING PT. OPERATIONS =  7.65E+09

     CHECK POINT   START OF SOLVER    

     CHECK POINT  END OF SOLVER       

       ELAPSED USER TIME (SEC)      =   1.0000    
       ELAPSED SYSTEM TIME (SEC)    =   0.0000    
       ELAPSED TOTAL CPU TIME (SEC) =   1.0000    
       ELAPSED WALLCLOCK TIME (SEC) =          1
 

 ***WARNING: SOLVER PROBLEM. NUMERICAL SINGULARITY WHEN PROCESSING NODE 
             COMPOSITEPLATE-1.4 D.O.F. 3 RATIO = 17.2377E+12 .

               CONVERGENCE CHECKS FOR EQUILIBRIUM ITERATION     1


 AVERAGE FORCE                      4.814E-03   TIME AVG. FORCE       2.220E-03
 LARGEST RESIDUAL FORCE             3.824E-10   AT NODE      16042   DOF  1
   INSTANCE: COMPOSITEPLATE-1                                                                
 LARGEST INCREMENT OF DISP.         2.869E-06   AT NODE          9   DOF  1
   INSTANCE: COMPOSITEPLATE-1                                                                
 LARGEST CORRECTION TO DISP.       -3.447E-12   AT NODE       4098   DOF  1
   INSTANCE: COMPOSITEPLATE-1                                                                
          THE FORCE     EQUILIBRIUM EQUATIONS HAVE CONVERGED

 AVERAGE MOMENT                     9.547E-20   TIME AVG. MOMENT      1.000E-02
 LARGEST RESIDUAL MOMENT           -1.578E-18   AT NODE      15312   DOF  4
   INSTANCE: COMPOSITEPLATE-1                                                                
 LARGEST INCREMENT OF ROTATION      2.862E-22   AT NODE      12661   DOF  5
   INSTANCE: COMPOSITEPLATE-1                                                                
 LARGEST CORRECTION TO ROTATION     5.514E-22   AT NODE         13   DOF  5
   INSTANCE: COMPOSITEPLATE-1                                                                
          THERE IS ZERO MOMENT    EVERYWHERE
 

 ***WARNING: THERE IS ZERO MOMENT EVERYWHERE IN THE MODEL BASED ON THE DEFAULT 
             CRITERION. PLEASE CHECK THE VALUE OF THE AVERAGE MOMENT DURING THE 
             CURRENT ITERATION TO VERIFY THAT THE MOMENT IS SMALL ENOUGH TO BE 
             TREATED AS ZERO. IF NOT, PLEASE USE THE SOLUTION CONTROLS TO RESET 
             THE CRITERION FOR ZERO MOMENT.
          TIME INCREMENT MAY NOW INCREASE TO    5.063E-05

 ITERATION SUMMARY FOR THE INCREMENT:   1 TOTAL ITERATIONS, OF WHICH
   0 ARE SEVERE DISCONTINUITY ITERATIONS AND  1 ARE EQUILIBRIUM ITERATIONS.

 TIME INCREMENT COMPLETED  3.375E-05,  FRACTION OF STEP COMPLETED  9.125E-05
 STEP TIME COMPLETED       9.125E-05,  TOTAL TIME COMPLETED        9.125E-05


  INCREMENT     6 STARTS. ATTEMPT NUMBER  1, TIME INCREMENT  5.063E-05

  NUMBER OF EQUATIONS =     80220     NUMBER OF FLOATING PT. OPERATIONS =  7.65E+09

     CHECK POINT   START OF SOLVER    

     CHECK POINT  END OF SOLVER       

       ELAPSED USER TIME (SEC)      =  0.90000    
       ELAPSED SYSTEM TIME (SEC)    =   0.0000    
       ELAPSED TOTAL CPU TIME (SEC) =  0.90000    
       ELAPSED WALLCLOCK TIME (SEC) =          1
 

 ***WARNING: SOLVER PROBLEM. NUMERICAL SINGULARITY WHEN PROCESSING NODE 
             COMPOSITEPLATE-1.4 D.O.F. 3 RATIO = 31.6467E+12 .

               CONVERGENCE CHECKS FOR EQUILIBRIUM ITERATION     1


 AVERAGE FORCE                      7.485E-03   TIME AVG. FORCE       3.097E-03
 LARGEST RESIDUAL FORCE            -3.909E-10   AT NODE      10606   DOF  2
   INSTANCE: COMPOSITEPLATE-1                                                                
 LARGEST INCREMENT OF DISP.         4.303E-06   AT NODE          9   DOF  1
   INSTANCE: COMPOSITEPLATE-1                                                                
 LARGEST CORRECTION TO DISP.        7.753E-12   AT NODE        182   DOF  1
   INSTANCE: COMPOSITEPLATE-1                                                                
          THE FORCE     EQUILIBRIUM EQUATIONS HAVE CONVERGED

 AVERAGE MOMENT                     1.451E-19   TIME AVG. MOMENT      1.000E-02
 LARGEST RESIDUAL MOMENT            2.162E-18   AT NODE       9851   DOF  4
   INSTANCE: COMPOSITEPLATE-1                                                                
 LARGEST INCREMENT OF ROTATION      4.492E-22   AT NODE         15   DOF  5
   INSTANCE: COMPOSITEPLATE-1                                                                
 LARGEST CORRECTION TO ROTATION    -5.989E-22   AT NODE        462   DOF  5
   INSTANCE: COMPOSITEPLATE-1                                                                
          THERE IS ZERO MOMENT    EVERYWHERE
 

 ***WARNING: THERE IS ZERO MOMENT EVERYWHERE IN THE MODEL BASED ON THE DEFAULT 
             CRITERION. PLEASE CHECK THE VALUE OF THE AVERAGE MOMENT DURING THE 
             CURRENT ITERATION TO VERIFY THAT THE MOMENT IS SMALL ENOUGH TO BE 
             TREATED AS ZERO. IF NOT, PLEASE USE THE SOLUTION CONTROLS TO RESET 
             THE CRITERION FOR ZERO MOMENT.
          TIME INCREMENT MAY NOW INCREASE TO    7.594E-05

 ITERATION SUMMARY FOR THE INCREMENT:   1 TOTAL ITERATIONS, OF WHICH
   0 ARE SEVERE DISCONTINUITY ITERATIONS AND  1 ARE EQUILIBRIUM ITERATIONS.

 TIME INCREMENT COMPLETED  5.063E-05,  FRACTION OF STEP COMPLETED  1.419E-04
 STEP TIME COMPLETED       1.419E-04,  TOTAL TIME COMPLETED        1.419E-04


  INCREMENT     7 STARTS. ATTEMPT NUMBER  1, TIME INCREMENT  7.594E-05

  NUMBER OF EQUATIONS =     80220     NUMBER OF FLOATING PT. OPERATIONS =  7.65E+09

     CHECK POINT   START OF SOLVER    

     CHECK POINT  END OF SOLVER       

       ELAPSED USER TIME (SEC)      =  0.80000    
       ELAPSED SYSTEM TIME (SEC)    =  0.10000    
       ELAPSED TOTAL CPU TIME (SEC) =  0.90000    
       ELAPSED WALLCLOCK TIME (SEC) =          1
 

 ***WARNING: SOLVER PROBLEM. NUMERICAL SINGULARITY WHEN PROCESSING NODE 
             COMPOSITEPLATE-1.4 D.O.F. 3 RATIO = 19.8911E+12 .

               CONVERGENCE CHECKS FOR EQUILIBRIUM ITERATION     1


 AVERAGE FORCE                      1.149E-02   TIME AVG. FORCE       4.296E-03
 LARGEST RESIDUAL FORCE             4.449E-10   AT NODE       8955   DOF  2
   INSTANCE: COMPOSITEPLATE-1                                                                
 LARGEST INCREMENT OF DISP.         6.455E-06   AT NODE          9   DOF  1
   INSTANCE: COMPOSITEPLATE-1                                                                
 LARGEST CORRECTION TO DISP.       -1.745E-11   AT NODE         19   DOF  1
   INSTANCE: COMPOSITEPLATE-1                                                                
          THE FORCE     EQUILIBRIUM EQUATIONS HAVE CONVERGED

 AVERAGE MOMENT                     2.242E-19   TIME AVG. MOMENT      1.000E-02
 LARGEST RESIDUAL MOMENT            4.257E-18   AT NODE      14374   DOF  4
   INSTANCE: COMPOSITEPLATE-1                                                                
 LARGEST INCREMENT OF ROTATION      6.921E-22   AT NODE        462   DOF  5
   INSTANCE: COMPOSITEPLATE-1                                                                
 LARGEST CORRECTION TO ROTATION    -1.271E-21   AT NODE         15   DOF  5
   INSTANCE: COMPOSITEPLATE-1                                                                
          THERE IS ZERO MOMENT    EVERYWHERE
 

 ***WARNING: THERE IS ZERO MOMENT EVERYWHERE IN THE MODEL BASED ON THE DEFAULT 
             CRITERION. PLEASE CHECK THE VALUE OF THE AVERAGE MOMENT DURING THE 
             CURRENT ITERATION TO VERIFY THAT THE MOMENT IS SMALL ENOUGH TO BE 
             TREATED AS ZERO. IF NOT, PLEASE USE THE SOLUTION CONTROLS TO RESET 
             THE CRITERION FOR ZERO MOMENT.
          TIME INCREMENT MAY NOW INCREASE TO    1.139E-04

 ITERATION SUMMARY FOR THE INCREMENT:   1 TOTAL ITERATIONS, OF WHICH
   0 ARE SEVERE DISCONTINUITY ITERATIONS AND  1 ARE EQUILIBRIUM ITERATIONS.

 TIME INCREMENT COMPLETED  7.594E-05,  FRACTION OF STEP COMPLETED  2.178E-04
 STEP TIME COMPLETED       2.178E-04,  TOTAL TIME COMPLETED        2.178E-04


  INCREMENT     8 STARTS. ATTEMPT NUMBER  1, TIME INCREMENT  1.139E-04

  NUMBER OF EQUATIONS =     80220     NUMBER OF FLOATING PT. OPERATIONS =  7.65E+09

     CHECK POINT   START OF SOLVER    

     CHECK POINT  END OF SOLVER       

       ELAPSED USER TIME (SEC)      =  0.80000    
       ELAPSED SYSTEM TIME (SEC)    =   0.0000    
       ELAPSED TOTAL CPU TIME (SEC) =  0.80000    
       ELAPSED WALLCLOCK TIME (SEC) =          1
 

 ***WARNING: SOLVER PROBLEM. NUMERICAL SINGULARITY WHEN PROCESSING NODE 
             COMPOSITEPLATE-1.4 D.O.F. 3 RATIO = 59.7145E+12 .

               CONVERGENCE CHECKS FOR EQUILIBRIUM ITERATION     1


 AVERAGE FORCE                      1.750E-02   TIME AVG. FORCE       5.947E-03
 LARGEST RESIDUAL FORCE             3.896E-10   AT NODE      14490   DOF  2
   INSTANCE: COMPOSITEPLATE-1                                                                
 LARGEST INCREMENT OF DISP.         9.682E-06   AT NODE          9   DOF  1
   INSTANCE: COMPOSITEPLATE-1                                                                
 LARGEST CORRECTION TO DISP.       -3.925E-11   AT NODE         19   DOF  1
   INSTANCE: COMPOSITEPLATE-1                                                                
          THE FORCE     EQUILIBRIUM EQUATIONS HAVE CONVERGED

 AVERAGE MOMENT                     3.474E-19   TIME AVG. MOMENT      1.000E-02
 LARGEST RESIDUAL MOMENT            5.855E-18   AT NODE      14198   DOF  4
   INSTANCE: COMPOSITEPLATE-1                                                                
 LARGEST INCREMENT OF ROTATION     -9.024E-22   AT NODE      14044   DOF  5
   INSTANCE: COMPOSITEPLATE-1                                                                
 LARGEST CORRECTION TO ROTATION    -1.723E-21   AT NODE      14179   DOF  5
   INSTANCE: COMPOSITEPLATE-1                                                                
          THERE IS ZERO MOMENT    EVERYWHERE
 

 ***WARNING: THERE IS ZERO MOMENT EVERYWHERE IN THE MODEL BASED ON THE DEFAULT 
             CRITERION. PLEASE CHECK THE VALUE OF THE AVERAGE MOMENT DURING THE 
             CURRENT ITERATION TO VERIFY THAT THE MOMENT IS SMALL ENOUGH TO BE 
             TREATED AS ZERO. IF NOT, PLEASE USE THE SOLUTION CONTROLS TO RESET 
             THE CRITERION FOR ZERO MOMENT.
          TIME INCREMENT MAY NOW INCREASE TO    1.709E-04

 ITERATION SUMMARY FOR THE INCREMENT:   1 TOTAL ITERATIONS, OF WHICH
   0 ARE SEVERE DISCONTINUITY ITERATIONS AND  1 ARE EQUILIBRIUM ITERATIONS.

 TIME INCREMENT COMPLETED  1.139E-04,  FRACTION OF STEP COMPLETED  3.317E-04
 STEP TIME COMPLETED       3.317E-04,  TOTAL TIME COMPLETED        3.317E-04


  INCREMENT     9 STARTS. ATTEMPT NUMBER  1, TIME INCREMENT  1.709E-04

  NUMBER OF EQUATIONS =     80220     NUMBER OF FLOATING PT. OPERATIONS =  7.65E+09

     CHECK POINT   START OF SOLVER    

     CHECK POINT  END OF SOLVER       

       ELAPSED USER TIME (SEC)      =  0.80000    
       ELAPSED SYSTEM TIME (SEC)    =   0.0000    
       ELAPSED TOTAL CPU TIME (SEC) =  0.80000    
       ELAPSED WALLCLOCK TIME (SEC) =          1
 

 ***WARNING: SOLVER PROBLEM. NUMERICAL SINGULARITY WHEN PROCESSING NODE 
             COMPOSITEPLATE-1.4 D.O.F. 3 RATIO = 53.7847E+12 .

               CONVERGENCE CHECKS FOR EQUILIBRIUM ITERATION     1


 AVERAGE FORCE                      2.651E-02   TIME AVG. FORCE       8.232E-03
 LARGEST RESIDUAL FORCE             4.151E-10   AT NODE      15821   DOF  2
   INSTANCE: COMPOSITEPLATE-1                                                                
 LARGEST INCREMENT OF DISP.         1.452E-05   AT NODE          9   DOF  1
   INSTANCE: COMPOSITEPLATE-1                                                                
 LARGEST CORRECTION TO DISP.        8.832E-11   AT NODE        182   DOF  1
   INSTANCE: COMPOSITEPLATE-1                                                                
          THE FORCE     EQUILIBRIUM EQUATIONS HAVE CONVERGED

 AVERAGE MOMENT                     5.168E-19   TIME AVG. MOMENT      1.000E-02
 LARGEST RESIDUAL MOMENT            8.949E-18   AT NODE       7591   DOF  4
   INSTANCE: COMPOSITEPLATE-1                                                                
 LARGEST INCREMENT OF ROTATION      1.436E-21   AT NODE        402   DOF  5
   INSTANCE: COMPOSITEPLATE-1                                                                
 LARGEST CORRECTION TO ROTATION    -2.306E-21   AT NODE       2095   DOF  5
   INSTANCE: COMPOSITEPLATE-1                                                                
          THERE IS ZERO MOMENT    EVERYWHERE
 

 ***WARNING: THERE IS ZERO MOMENT EVERYWHERE IN THE MODEL BASED ON THE DEFAULT 
             CRITERION. PLEASE CHECK THE VALUE OF THE AVERAGE MOMENT DURING THE 
             CURRENT ITERATION TO VERIFY THAT THE MOMENT IS SMALL ENOUGH TO BE 
             TREATED AS ZERO. IF NOT, PLEASE USE THE SOLUTION CONTROLS TO RESET 
             THE CRITERION FOR ZERO MOMENT.
          TIME INCREMENT MAY NOW INCREASE TO    2.563E-04

 ITERATION SUMMARY FOR THE INCREMENT:   1 TOTAL ITERATIONS, OF WHICH
   0 ARE SEVERE DISCONTINUITY ITERATIONS AND  1 ARE EQUILIBRIUM ITERATIONS.

 TIME INCREMENT COMPLETED  1.709E-04,  FRACTION OF STEP COMPLETED  5.026E-04
 STEP TIME COMPLETED       5.026E-04,  TOTAL TIME COMPLETED        5.026E-04


  INCREMENT    10 STARTS. ATTEMPT NUMBER  1, TIME INCREMENT  2.563E-04

  NUMBER OF EQUATIONS =     80220     NUMBER OF FLOATING PT. OPERATIONS =  7.65E+09

     CHECK POINT   START OF SOLVER    

     CHECK POINT  END OF SOLVER       

       ELAPSED USER TIME (SEC)      =  0.80000    
       ELAPSED SYSTEM TIME (SEC)    =   0.0000    
       ELAPSED TOTAL CPU TIME (SEC) =  0.80000    
       ELAPSED WALLCLOCK TIME (SEC) =          0
 

 ***WARNING: SOLVER PROBLEM. NUMERICAL SINGULARITY WHEN PROCESSING NODE 
             COMPOSITEPLATE-1.4 D.O.F. 3 RATIO = 63.4887E+12 .

               CONVERGENCE CHECKS FOR EQUILIBRIUM ITERATION     1


 AVERAGE FORCE                      4.003E-02   TIME AVG. FORCE       1.141E-02
 LARGEST RESIDUAL FORCE            -3.553E-10   AT NODE      15923   DOF  2
   INSTANCE: COMPOSITEPLATE-1                                                                
 LARGEST INCREMENT OF DISP.         2.178E-05   AT NODE          9   DOF  1
   INSTANCE: COMPOSITEPLATE-1                                                                
 LARGEST CORRECTION TO DISP.       -1.987E-10   AT NODE         19   DOF  1
   INSTANCE: COMPOSITEPLATE-1                                                                
          THE FORCE     EQUILIBRIUM EQUATIONS HAVE CONVERGED

 AVERAGE MOMENT                     8.052E-19   TIME AVG. MOMENT      1.000E-02
 LARGEST RESIDUAL MOMENT           -1.418E-17   AT NODE      10411   DOF  4
   INSTANCE: COMPOSITEPLATE-1                                                                
 LARGEST INCREMENT OF ROTATION      3.549E-21   AT NODE         15   DOF  5
   INSTANCE: COMPOSITEPLATE-1                                                                
 LARGEST CORRECTION TO ROTATION     5.417E-21   AT NODE         15   DOF  5
   INSTANCE: COMPOSITEPLATE-1                                                                
          THERE IS ZERO MOMENT    EVERYWHERE
 

 ***WARNING: THERE IS ZERO MOMENT EVERYWHERE IN THE MODEL BASED ON THE DEFAULT 
             CRITERION. PLEASE CHECK THE VALUE OF THE AVERAGE MOMENT DURING THE 
             CURRENT ITERATION TO VERIFY THAT THE MOMENT IS SMALL ENOUGH TO BE 
             TREATED AS ZERO. IF NOT, PLEASE USE THE SOLUTION CONTROLS TO RESET 
             THE CRITERION FOR ZERO MOMENT.
          TIME INCREMENT MAY NOW INCREASE TO    3.844E-04

 ITERATION SUMMARY FOR THE INCREMENT:   1 TOTAL ITERATIONS, OF WHICH
   0 ARE SEVERE DISCONTINUITY ITERATIONS AND  1 ARE EQUILIBRIUM ITERATIONS.

 TIME INCREMENT COMPLETED  2.563E-04,  FRACTION OF STEP COMPLETED  7.589E-04
 STEP TIME COMPLETED       7.589E-04,  TOTAL TIME COMPLETED        7.589E-04


  INCREMENT    11 STARTS. ATTEMPT NUMBER  1, TIME INCREMENT  3.844E-04

  NUMBER OF EQUATIONS =     80220     NUMBER OF FLOATING PT. OPERATIONS =  7.65E+09

     CHECK POINT   START OF SOLVER    

     CHECK POINT  END OF SOLVER       

       ELAPSED USER TIME (SEC)      =  0.80000    
       ELAPSED SYSTEM TIME (SEC)    =   0.0000    
       ELAPSED TOTAL CPU TIME (SEC) =  0.80000    
       ELAPSED WALLCLOCK TIME (SEC) =          1
 

 ***WARNING: SOLVER PROBLEM. NUMERICAL SINGULARITY WHEN PROCESSING NODE 
             COMPOSITEPLATE-1.4 D.O.F. 3 RATIO = 119.844E+12  .

               CONVERGENCE CHECKS FOR EQUILIBRIUM ITERATION     1


 AVERAGE FORCE                      6.031E-02   TIME AVG. FORCE       1.586E-02
 LARGEST RESIDUAL FORCE             3.490E-10   AT NODE       3384   DOF  1
   INSTANCE: COMPOSITEPLATE-1                                                                
 LARGEST INCREMENT OF DISP.         3.268E-05   AT NODE          9   DOF  1
   INSTANCE: COMPOSITEPLATE-1                                                                
 LARGEST CORRECTION TO DISP.       -4.471E-10   AT NODE         19   DOF  1
   INSTANCE: COMPOSITEPLATE-1                                                                
          THE FORCE     EQUILIBRIUM EQUATIONS HAVE CONVERGED

 AVERAGE MOMENT                     1.186E-18   TIME AVG. MOMENT      1.000E-02
 LARGEST RESIDUAL MOMENT           -1.953E-17   AT NODE       3517   DOF  4
   INSTANCE: COMPOSITEPLATE-1                                                                
 LARGEST INCREMENT OF ROTATION     -3.406E-21   AT NODE        484   DOF  5
   INSTANCE: COMPOSITEPLATE-1                                                                
 LARGEST CORRECTION TO ROTATION    -7.104E-21   AT NODE         15   DOF  5
   INSTANCE: COMPOSITEPLATE-1                                                                
          THERE IS ZERO MOMENT    EVERYWHERE
 

 ***WARNING: THERE IS ZERO MOMENT EVERYWHERE IN THE MODEL BASED ON THE DEFAULT 
             CRITERION. PLEASE CHECK THE VALUE OF THE AVERAGE MOMENT DURING THE 
             CURRENT ITERATION TO VERIFY THAT THE MOMENT IS SMALL ENOUGH TO BE 
             TREATED AS ZERO. IF NOT, PLEASE USE THE SOLUTION CONTROLS TO RESET 
             THE CRITERION FOR ZERO MOMENT.
          TIME INCREMENT MAY NOW INCREASE TO    5.767E-04

 ITERATION SUMMARY FOR THE INCREMENT:   1 TOTAL ITERATIONS, OF WHICH
   0 ARE SEVERE DISCONTINUITY ITERATIONS AND  1 ARE EQUILIBRIUM ITERATIONS.

 TIME INCREMENT COMPLETED  3.844E-04,  FRACTION OF STEP COMPLETED  1.143E-03
 STEP TIME COMPLETED       1.143E-03,  TOTAL TIME COMPLETED        1.143E-03


  INCREMENT    12 STARTS. ATTEMPT NUMBER  1, TIME INCREMENT  5.767E-04

  NUMBER OF EQUATIONS =     80220     NUMBER OF FLOATING PT. OPERATIONS =  7.65E+09

     CHECK POINT   START OF SOLVER    

     CHECK POINT  END OF SOLVER       

       ELAPSED USER TIME (SEC)      =  0.80000    
       ELAPSED SYSTEM TIME (SEC)    =   0.0000    
       ELAPSED TOTAL CPU TIME (SEC) =  0.80000    
       ELAPSED WALLCLOCK TIME (SEC) =          1
 

 ***WARNING: SOLVER PROBLEM. NUMERICAL SINGULARITY WHEN PROCESSING NODE 
             COMPOSITEPLATE-1.4 D.O.F. 3 RATIO = 11.5366E+12 .

               CONVERGENCE CHECKS FOR EQUILIBRIUM ITERATION     1


 AVERAGE FORCE                      9.073E-02   TIME AVG. FORCE       2.210E-02
 LARGEST RESIDUAL FORCE             5.584E-10   AT NODE       8955   DOF  2
   INSTANCE: COMPOSITEPLATE-1                                                                
 LARGEST INCREMENT OF DISP.         4.902E-05   AT NODE          9   DOF  1
   INSTANCE: COMPOSITEPLATE-1                                                                
 LARGEST CORRECTION TO DISP.        1.006E-09   AT NODE        182   DOF  1
   INSTANCE: COMPOSITEPLATE-1                                                                
          THE FORCE     EQUILIBRIUM EQUATIONS HAVE CONVERGED

 AVERAGE MOMENT                     1.804E-18   TIME AVG. MOMENT      1.000E-02
 LARGEST RESIDUAL MOMENT            2.961E-17   AT NODE      14374   DOF  4
   INSTANCE: COMPOSITEPLATE-1                                                                
 LARGEST INCREMENT OF ROTATION     -7.110E-21   AT NODE        343   DOF  5
   INSTANCE: COMPOSITEPLATE-1                                                                
 LARGEST CORRECTION TO ROTATION    -1.208E-20   AT NODE        343   DOF  5
   INSTANCE: COMPOSITEPLATE-1                                                                
          THERE IS ZERO MOMENT    EVERYWHERE
 

 ***WARNING: THERE IS ZERO MOMENT EVERYWHERE IN THE MODEL BASED ON THE DEFAULT 
             CRITERION. PLEASE CHECK THE VALUE OF THE AVERAGE MOMENT DURING THE 
             CURRENT ITERATION TO VERIFY THAT THE MOMENT IS SMALL ENOUGH TO BE 
             TREATED AS ZERO. IF NOT, PLEASE USE THE SOLUTION CONTROLS TO RESET 
             THE CRITERION FOR ZERO MOMENT.
          TIME INCREMENT MAY NOW INCREASE TO    8.650E-04

 ITERATION SUMMARY FOR THE INCREMENT:   1 TOTAL ITERATIONS, OF WHICH
   0 ARE SEVERE DISCONTINUITY ITERATIONS AND  1 ARE EQUILIBRIUM ITERATIONS.

 TIME INCREMENT COMPLETED  5.767E-04,  FRACTION OF STEP COMPLETED  1.720E-03
 STEP TIME COMPLETED       1.720E-03,  TOTAL TIME COMPLETED        1.720E-03


  INCREMENT    13 STARTS. ATTEMPT NUMBER  1, TIME INCREMENT  8.650E-04

  NUMBER OF EQUATIONS =     80220     NUMBER OF FLOATING PT. OPERATIONS =  7.65E+09

     CHECK POINT   START OF SOLVER    

     CHECK POINT  END OF SOLVER       

       ELAPSED USER TIME (SEC)      =  0.80000    
       ELAPSED SYSTEM TIME (SEC)    =   0.0000    
       ELAPSED TOTAL CPU TIME (SEC) =  0.80000    
       ELAPSED WALLCLOCK TIME (SEC) =          1
 

 ***WARNING: SOLVER PROBLEM. NUMERICAL SINGULARITY WHEN PROCESSING NODE 
             COMPOSITEPLATE-1.4 D.O.F. 3 RATIO = 72.4133E+12 .

               CONVERGENCE CHECKS FOR EQUILIBRIUM ITERATION     1


 AVERAGE FORCE                      0.136       TIME AVG. FORCE       3.089E-02
 LARGEST RESIDUAL FORCE            -4.099E-10   AT NODE      15634   DOF  1
   INSTANCE: COMPOSITEPLATE-1                                                                
 LARGEST INCREMENT OF DISP.         7.352E-05   AT NODE          9   DOF  1
   INSTANCE: COMPOSITEPLATE-1                                                                
 LARGEST CORRECTION TO DISP.       -2.263E-09   AT NODE         19   DOF  1
   INSTANCE: COMPOSITEPLATE-1                                                                
          THE FORCE     EQUILIBRIUM EQUATIONS HAVE CONVERGED

 AVERAGE MOMENT                     2.735E-18   TIME AVG. MOMENT      1.000E-02
 LARGEST RESIDUAL MOMENT           -4.495E-17   AT NODE      15313   DOF  4
   INSTANCE: COMPOSITEPLATE-1                                                                
 LARGEST INCREMENT OF ROTATION     -1.495E-20   AT NODE         13   DOF  5
   INSTANCE: COMPOSITEPLATE-1                                                                
 LARGEST CORRECTION TO ROTATION    -1.501E-20   AT NODE         13   DOF  5
   INSTANCE: COMPOSITEPLATE-1                                                                
          THERE IS ZERO MOMENT    EVERYWHERE
 

 ***WARNING: THERE IS ZERO MOMENT EVERYWHERE IN THE MODEL BASED ON THE DEFAULT 
             CRITERION. PLEASE CHECK THE VALUE OF THE AVERAGE MOMENT DURING THE 
             CURRENT ITERATION TO VERIFY THAT THE MOMENT IS SMALL ENOUGH TO BE 
             TREATED AS ZERO. IF NOT, PLEASE USE THE SOLUTION CONTROLS TO RESET 
             THE CRITERION FOR ZERO MOMENT.
          TIME INCREMENT MAY NOW INCREASE TO    1.297E-03

 ITERATION SUMMARY FOR THE INCREMENT:   1 TOTAL ITERATIONS, OF WHICH
   0 ARE SEVERE DISCONTINUITY ITERATIONS AND  1 ARE EQUILIBRIUM ITERATIONS.

 TIME INCREMENT COMPLETED  8.650E-04,  FRACTION OF STEP COMPLETED  2.585E-03
 STEP TIME COMPLETED       2.585E-03,  TOTAL TIME COMPLETED        2.585E-03


  INCREMENT    14 STARTS. ATTEMPT NUMBER  1, TIME INCREMENT  1.297E-03

  NUMBER OF EQUATIONS =     80220     NUMBER OF FLOATING PT. OPERATIONS =  7.65E+09

     CHECK POINT   START OF SOLVER    

     CHECK POINT  END OF SOLVER       

       ELAPSED USER TIME (SEC)      =  0.80000    
       ELAPSED SYSTEM TIME (SEC)    =   0.0000    
       ELAPSED TOTAL CPU TIME (SEC) =  0.80000    
       ELAPSED WALLCLOCK TIME (SEC) =          1
 

 ***WARNING: SOLVER PROBLEM. NUMERICAL SINGULARITY WHEN PROCESSING NODE 
             COMPOSITEPLATE-1.4 D.O.F. 3 RATIO = 20.5002E+12 .

               CONVERGENCE CHECKS FOR EQUILIBRIUM ITERATION     1


 AVERAGE FORCE                      0.205       TIME AVG. FORCE       4.331E-02
 LARGEST RESIDUAL FORCE            -4.190E-10   AT NODE      10784   DOF  2
   INSTANCE: COMPOSITEPLATE-1                                                                
 LARGEST INCREMENT OF DISP.         1.103E-04   AT NODE          9   DOF  1
   INSTANCE: COMPOSITEPLATE-1                                                                
 LARGEST CORRECTION TO DISP.       -5.091E-09   AT NODE         19   DOF  1
   INSTANCE: COMPOSITEPLATE-1                                                                
          THE FORCE     EQUILIBRIUM RESPONSE WAS LINEAR IN THIS INCREMENT

 AVERAGE MOMENT                     4.038E-18   TIME AVG. MOMENT      1.000E-02
 LARGEST RESIDUAL MOMENT           -5.863E-17   AT NODE      10305   DOF  4
   INSTANCE: COMPOSITEPLATE-1                                                                
 LARGEST INCREMENT OF ROTATION     -1.365E-20   AT NODE         15   DOF  4
   INSTANCE: COMPOSITEPLATE-1                                                                
 LARGEST CORRECTION TO ROTATION     2.950E-20   AT NODE         13   DOF  5
   INSTANCE: COMPOSITEPLATE-1                                                                
          THERE IS ZERO MOMENT    EVERYWHERE
 

 ***WARNING: THERE IS ZERO MOMENT EVERYWHERE IN THE MODEL BASED ON THE DEFAULT 
             CRITERION. PLEASE CHECK THE VALUE OF THE AVERAGE MOMENT DURING THE 
             CURRENT ITERATION TO VERIFY THAT THE MOMENT IS SMALL ENOUGH TO BE 
             TREATED AS ZERO. IF NOT, PLEASE USE THE SOLUTION CONTROLS TO RESET 
             THE CRITERION FOR ZERO MOMENT.
          TIME INCREMENT MAY NOW INCREASE TO    1.946E-03

 ITERATION SUMMARY FOR THE INCREMENT:   1 TOTAL ITERATIONS, OF WHICH
   0 ARE SEVERE DISCONTINUITY ITERATIONS AND  1 ARE EQUILIBRIUM ITERATIONS.

 TIME INCREMENT COMPLETED  1.297E-03,  FRACTION OF STEP COMPLETED  3.882E-03
 STEP TIME COMPLETED       3.882E-03,  TOTAL TIME COMPLETED        3.882E-03


  INCREMENT    15 STARTS. ATTEMPT NUMBER  1, TIME INCREMENT  1.946E-03

  NUMBER OF EQUATIONS =     80220     NUMBER OF FLOATING PT. OPERATIONS =  7.65E+09

     CHECK POINT   START OF SOLVER    

     CHECK POINT  END OF SOLVER       

       ELAPSED USER TIME (SEC)      =  0.80000    
       ELAPSED SYSTEM TIME (SEC)    =   0.0000    
       ELAPSED TOTAL CPU TIME (SEC) =  0.80000    
       ELAPSED WALLCLOCK TIME (SEC) =          1
 

 ***WARNING: SOLVER PROBLEM. NUMERICAL SINGULARITY WHEN PROCESSING NODE 
             COMPOSITEPLATE-1.4 D.O.F. 3 RATIO = 19.0313E+12 .

               CONVERGENCE CHECKS FOR EQUILIBRIUM ITERATION     1


 AVERAGE FORCE                      0.307       TIME AVG. FORCE       6.092E-02
 LARGEST RESIDUAL FORCE             5.841E-10   AT NODE       8955   DOF  2
   INSTANCE: COMPOSITEPLATE-1                                                                
 LARGEST INCREMENT OF DISP.         1.654E-04   AT NODE          9   DOF  1
   INSTANCE: COMPOSITEPLATE-1                                                                
 LARGEST CORRECTION TO DISP.       -1.145E-08   AT NODE         19   DOF  1
   INSTANCE: COMPOSITEPLATE-1                                                                
          THE FORCE     EQUILIBRIUM RESPONSE WAS LINEAR IN THIS INCREMENT

 AVERAGE MOMENT                     6.236E-18   TIME AVG. MOMENT      1.000E-02
 LARGEST RESIDUAL MOMENT           -9.339E-17   AT NODE      14786   DOF  5
   INSTANCE: COMPOSITEPLATE-1                                                                
 LARGEST INCREMENT OF ROTATION     -1.694E-20   AT NODE        406   DOF  5
   INSTANCE: COMPOSITEPLATE-1                                                                
 LARGEST CORRECTION TO ROTATION    -2.576E-20   AT NODE        406   DOF  5
   INSTANCE: COMPOSITEPLATE-1                                                                
          THERE IS ZERO MOMENT    EVERYWHERE
 

 ***WARNING: THERE IS ZERO MOMENT EVERYWHERE IN THE MODEL BASED ON THE DEFAULT 
             CRITERION. PLEASE CHECK THE VALUE OF THE AVERAGE MOMENT DURING THE 
             CURRENT ITERATION TO VERIFY THAT THE MOMENT IS SMALL ENOUGH TO BE 
             TREATED AS ZERO. IF NOT, PLEASE USE THE SOLUTION CONTROLS TO RESET 
             THE CRITERION FOR ZERO MOMENT.
          TIME INCREMENT MAY NOW INCREASE TO    2.919E-03

 ITERATION SUMMARY FOR THE INCREMENT:   1 TOTAL ITERATIONS, OF WHICH
   0 ARE SEVERE DISCONTINUITY ITERATIONS AND  1 ARE EQUILIBRIUM ITERATIONS.

 TIME INCREMENT COMPLETED  1.946E-03,  FRACTION OF STEP COMPLETED  5.829E-03
 STEP TIME COMPLETED       5.829E-03,  TOTAL TIME COMPLETED        5.829E-03


  INCREMENT    16 STARTS. ATTEMPT NUMBER  1, TIME INCREMENT  2.919E-03

  NUMBER OF EQUATIONS =     80220     NUMBER OF FLOATING PT. OPERATIONS =  7.65E+09

     CHECK POINT   START OF SOLVER    

     CHECK POINT  END OF SOLVER       

       ELAPSED USER TIME (SEC)      =  0.80000    
       ELAPSED SYSTEM TIME (SEC)    =   0.0000    
       ELAPSED TOTAL CPU TIME (SEC) =  0.80000    
       ELAPSED WALLCLOCK TIME (SEC) =          1
 

 ***WARNING: SOLVER PROBLEM. NUMERICAL SINGULARITY WHEN PROCESSING NODE 
             COMPOSITEPLATE-1.4 D.O.F. 3 RATIO = 73.1578E+12 .

               CONVERGENCE CHECKS FOR EQUILIBRIUM ITERATION     1


 AVERAGE FORCE                      0.461       TIME AVG. FORCE       8.595E-02
 LARGEST RESIDUAL FORCE            -1.563E-09   AT NODE       7403   DOF  1
   INSTANCE: COMPOSITEPLATE-1                                                                
 LARGEST INCREMENT OF DISP.         2.481E-04   AT NODE          9   DOF  1
   INSTANCE: COMPOSITEPLATE-1                                                                
 LARGEST CORRECTION TO DISP.       -2.576E-08   AT NODE         19   DOF  1
   INSTANCE: COMPOSITEPLATE-1                                                                
          THE FORCE     EQUILIBRIUM EQUATIONS HAVE CONVERGED

 AVERAGE MOMENT                     9.038E-18   TIME AVG. MOMENT      1.000E-02
 LARGEST RESIDUAL MOMENT           -1.456E-16   AT NODE       7799   DOF  5
   INSTANCE: COMPOSITEPLATE-1                                                                
 LARGEST INCREMENT OF ROTATION      3.002E-20   AT NODE        463   DOF  5
   INSTANCE: COMPOSITEPLATE-1                                                                
 LARGEST CORRECTION TO ROTATION     4.723E-20   AT NODE        463   DOF  5
   INSTANCE: COMPOSITEPLATE-1                                                                
          THERE IS ZERO MOMENT    EVERYWHERE
 

 ***WARNING: THERE IS ZERO MOMENT EVERYWHERE IN THE MODEL BASED ON THE DEFAULT 
             CRITERION. PLEASE CHECK THE VALUE OF THE AVERAGE MOMENT DURING THE 
             CURRENT ITERATION TO VERIFY THAT THE MOMENT IS SMALL ENOUGH TO BE 
             TREATED AS ZERO. IF NOT, PLEASE USE THE SOLUTION CONTROLS TO RESET 
             THE CRITERION FOR ZERO MOMENT.
          TIME INCREMENT MAY NOW INCREASE TO    4.379E-03

 ITERATION SUMMARY FOR THE INCREMENT:   1 TOTAL ITERATIONS, OF WHICH
   0 ARE SEVERE DISCONTINUITY ITERATIONS AND  1 ARE EQUILIBRIUM ITERATIONS.

 TIME INCREMENT COMPLETED  2.919E-03,  FRACTION OF STEP COMPLETED  8.748E-03
 STEP TIME COMPLETED       8.748E-03,  TOTAL TIME COMPLETED        8.748E-03


  INCREMENT    17 STARTS. ATTEMPT NUMBER  1, TIME INCREMENT  4.379E-03

  NUMBER OF EQUATIONS =     80220     NUMBER OF FLOATING PT. OPERATIONS =  7.65E+09

     CHECK POINT   START OF SOLVER    

     CHECK POINT  END OF SOLVER       

       ELAPSED USER TIME (SEC)      =  0.80000    
       ELAPSED SYSTEM TIME (SEC)    =   0.0000    
       ELAPSED TOTAL CPU TIME (SEC) =  0.80000    
       ELAPSED WALLCLOCK TIME (SEC) =          1
 

 ***WARNING: SOLVER PROBLEM. NUMERICAL SINGULARITY WHEN PROCESSING NODE 
             COMPOSITEPLATE-1.4 D.O.F. 3 RATIO = 29.2734E+12 .

               CONVERGENCE CHECKS FOR EQUILIBRIUM ITERATION     1


 AVERAGE FORCE                      0.693       TIME AVG. FORCE       0.122    
 LARGEST RESIDUAL FORCE            -5.194E-09   AT NODE       7909   DOF  1
   INSTANCE: COMPOSITEPLATE-1                                                                
 LARGEST INCREMENT OF DISP.         3.722E-04   AT NODE          9   DOF  1
   INSTANCE: COMPOSITEPLATE-1                                                                
 LARGEST CORRECTION TO DISP.       -5.795E-08   AT NODE         19   DOF  1
   INSTANCE: COMPOSITEPLATE-1                                                                
          THE FORCE     EQUILIBRIUM EQUATIONS HAVE CONVERGED

 AVERAGE MOMENT                     1.361E-17   TIME AVG. MOMENT      1.404E-02
                                                (FROM FORCE     FIELD)
 LARGEST RESIDUAL MOMENT           -2.257E-16   AT NODE      15000   DOF  4
   INSTANCE: COMPOSITEPLATE-1                                                                
 LARGEST INCREMENT OF ROTATION      3.047E-20   AT NODE         15   DOF  4
   INSTANCE: COMPOSITEPLATE-1                                                                
 LARGEST CORRECTION TO ROTATION    -4.746E-20   AT NODE        407   DOF  5
   INSTANCE: COMPOSITEPLATE-1                                                                
          THERE IS ZERO MOMENT    EVERYWHERE
          TIME INCREMENT MAY NOW INCREASE TO    6.568E-03

 ITERATION SUMMARY FOR THE INCREMENT:   1 TOTAL ITERATIONS, OF WHICH
   0 ARE SEVERE DISCONTINUITY ITERATIONS AND  1 ARE EQUILIBRIUM ITERATIONS.

 TIME INCREMENT COMPLETED  4.379E-03,  FRACTION OF STEP COMPLETED  1.313E-02
 STEP TIME COMPLETED       1.313E-02,  TOTAL TIME COMPLETED        1.313E-02


  INCREMENT    18 STARTS. ATTEMPT NUMBER  1, TIME INCREMENT  6.568E-03

  NUMBER OF EQUATIONS =     80220     NUMBER OF FLOATING PT. OPERATIONS =  7.65E+09

     CHECK POINT   START OF SOLVER    

     CHECK POINT  END OF SOLVER       

       ELAPSED USER TIME (SEC)      =  0.80000    
       ELAPSED SYSTEM TIME (SEC)    =   0.0000    
       ELAPSED TOTAL CPU TIME (SEC) =  0.80000    
       ELAPSED WALLCLOCK TIME (SEC) =          1
 

 ***WARNING: SOLVER PROBLEM. NUMERICAL SINGULARITY WHEN PROCESSING NODE 
             COMPOSITEPLATE-1.4 D.O.F. 3 RATIO = 41.7106E+12 .

               CONVERGENCE CHECKS FOR EQUILIBRIUM ITERATION     1


 AVERAGE FORCE                       1.04       TIME AVG. FORCE       0.173    
 LARGEST RESIDUAL FORCE            -1.743E-08   AT NODE       7403   DOF  1
   INSTANCE: COMPOSITEPLATE-1                                                                
 LARGEST INCREMENT OF DISP.         5.583E-04   AT NODE          9   DOF  1
   INSTANCE: COMPOSITEPLATE-1                                                                
 LARGEST CORRECTION TO DISP.       -1.303E-07   AT NODE         19   DOF  1
   INSTANCE: COMPOSITEPLATE-1                                                                
          THE FORCE     EQUILIBRIUM EQUATIONS HAVE CONVERGED

 AVERAGE MOMENT                     2.063E-17   TIME AVG. MOMENT      1.987E-02
                                                (FROM FORCE     FIELD)
 LARGEST RESIDUAL MOMENT            3.901E-16   AT NODE      14051   DOF  4
   INSTANCE: COMPOSITEPLATE-1                                                                
 LARGEST INCREMENT OF ROTATION     -5.499E-20   AT NODE       2930   DOF  5
   INSTANCE: COMPOSITEPLATE-1                                                                
 LARGEST CORRECTION TO ROTATION    -7.729E-20   AT NODE        343   DOF  4
   INSTANCE: COMPOSITEPLATE-1                                                                
          THERE IS ZERO MOMENT    EVERYWHERE
          TIME INCREMENT MAY NOW INCREASE TO    9.853E-03

 ITERATION SUMMARY FOR THE INCREMENT:   1 TOTAL ITERATIONS, OF WHICH
   0 ARE SEVERE DISCONTINUITY ITERATIONS AND  1 ARE EQUILIBRIUM ITERATIONS.

 TIME INCREMENT COMPLETED  6.568E-03,  FRACTION OF STEP COMPLETED  1.970E-02
 STEP TIME COMPLETED       1.970E-02,  TOTAL TIME COMPLETED        1.970E-02


  INCREMENT    19 STARTS. ATTEMPT NUMBER  1, TIME INCREMENT  9.853E-03

  NUMBER OF EQUATIONS =     80220     NUMBER OF FLOATING PT. OPERATIONS =  7.65E+09

     CHECK POINT   START OF SOLVER    

     CHECK POINT  END OF SOLVER       

       ELAPSED USER TIME (SEC)      =  0.80000    
       ELAPSED SYSTEM TIME (SEC)    =   0.0000    
       ELAPSED TOTAL CPU TIME (SEC) =  0.80000    
       ELAPSED WALLCLOCK TIME (SEC) =          0
 

 ***WARNING: SOLVER PROBLEM. NUMERICAL SINGULARITY WHEN PROCESSING NODE 
             COMPOSITEPLATE-1.4 D.O.F. 3 RATIO = 78.9606E+12 .

               CONVERGENCE CHECKS FOR EQUILIBRIUM ITERATION     1


 AVERAGE FORCE                       1.56       TIME AVG. FORCE       0.246    
 LARGEST RESIDUAL FORCE             5.855E-08   AT NODE       4990   DOF  1
   INSTANCE: COMPOSITEPLATE-1                                                                
 LARGEST INCREMENT OF DISP.         8.375E-04   AT NODE          9   DOF  1
   INSTANCE: COMPOSITEPLATE-1                                                                
 LARGEST CORRECTION TO DISP.       -2.929E-07   AT NODE         19   DOF  1
   INSTANCE: COMPOSITEPLATE-1                                                                
          THE FORCE     EQUILIBRIUM EQUATIONS HAVE CONVERGED

 AVERAGE MOMENT                     3.058E-17   TIME AVG. MOMENT      2.819E-02
                                                (FROM FORCE     FIELD)
 LARGEST RESIDUAL MOMENT           -5.182E-16   AT NODE       9808   DOF  4
   INSTANCE: COMPOSITEPLATE-1                                                                
 LARGEST INCREMENT OF ROTATION     -8.824E-20   AT NODE         15   DOF  4
   INSTANCE: COMPOSITEPLATE-1                                                                
 LARGEST CORRECTION TO ROTATION     1.593E-19   AT NODE       2930   DOF  5
   INSTANCE: COMPOSITEPLATE-1                                                                
          THERE IS ZERO MOMENT    EVERYWHERE
          TIME INCREMENT MAY NOW INCREASE TO    1.478E-02

 ITERATION SUMMARY FOR THE INCREMENT:   1 TOTAL ITERATIONS, OF WHICH
   0 ARE SEVERE DISCONTINUITY ITERATIONS AND  1 ARE EQUILIBRIUM ITERATIONS.

 TIME INCREMENT COMPLETED  9.853E-03,  FRACTION OF STEP COMPLETED  2.955E-02
 STEP TIME COMPLETED       2.955E-02,  TOTAL TIME COMPLETED        2.955E-02


  INCREMENT    20 STARTS. ATTEMPT NUMBER  1, TIME INCREMENT  1.478E-02

  NUMBER OF EQUATIONS =     80220     NUMBER OF FLOATING PT. OPERATIONS =  7.65E+09

     CHECK POINT   START OF SOLVER    

     CHECK POINT  END OF SOLVER       

       ELAPSED USER TIME (SEC)      =  0.90000    
       ELAPSED SYSTEM TIME (SEC)    =   0.0000    
       ELAPSED TOTAL CPU TIME (SEC) =  0.90000    
       ELAPSED WALLCLOCK TIME (SEC) =          1
 

 ***WARNING: SOLVER PROBLEM. NUMERICAL SINGULARITY WHEN PROCESSING NODE 
             COMPOSITEPLATE-1.4 D.O.F. 3 RATIO = 29.6374E+12 .

               CONVERGENCE CHECKS FOR EQUILIBRIUM ITERATION     1


 AVERAGE FORCE                       2.34       TIME AVG. FORCE       0.350    
 LARGEST RESIDUAL FORCE             1.965E-07   AT NODE       4990   DOF  1
   INSTANCE: COMPOSITEPLATE-1                                                                
 LARGEST INCREMENT OF DISP.         1.256E-03   AT NODE          9   DOF  1
   INSTANCE: COMPOSITEPLATE-1                                                                
 LARGEST CORRECTION TO DISP.       -6.582E-07   AT NODE         19   DOF  1
   INSTANCE: COMPOSITEPLATE-1                                                                
          THE FORCE     EQUILIBRIUM EQUATIONS HAVE CONVERGED

 AVERAGE MOMENT                     4.673E-17   TIME AVG. MOMENT      4.012E-02
                                                (FROM FORCE     FIELD)
 LARGEST RESIDUAL MOMENT            6.793E-16   AT NODE      11291   DOF  4
   INSTANCE: COMPOSITEPLATE-1                                                                
 LARGEST INCREMENT OF ROTATION     -1.421E-19   AT NODE        479   DOF  5
   INSTANCE: COMPOSITEPLATE-1                                                                
 LARGEST CORRECTION TO ROTATION    -2.313E-19   AT NODE        479   DOF  5
   INSTANCE: COMPOSITEPLATE-1                                                                
          THERE IS ZERO MOMENT    EVERYWHERE
          TIME INCREMENT MAY NOW INCREASE TO    2.217E-02

 ITERATION SUMMARY FOR THE INCREMENT:   1 TOTAL ITERATIONS, OF WHICH
   0 ARE SEVERE DISCONTINUITY ITERATIONS AND  1 ARE EQUILIBRIUM ITERATIONS.

 TIME INCREMENT COMPLETED  1.478E-02,  FRACTION OF STEP COMPLETED  4.433E-02
 STEP TIME COMPLETED       4.433E-02,  TOTAL TIME COMPLETED        4.433E-02


  INCREMENT    21 STARTS. ATTEMPT NUMBER  1, TIME INCREMENT  2.217E-02

  NUMBER OF EQUATIONS =     80220     NUMBER OF FLOATING PT. OPERATIONS =  7.65E+09

     CHECK POINT   START OF SOLVER    

     CHECK POINT  END OF SOLVER       

       ELAPSED USER TIME (SEC)      =  0.80000    
       ELAPSED SYSTEM TIME (SEC)    =   0.0000    
       ELAPSED TOTAL CPU TIME (SEC) =  0.80000    
       ELAPSED WALLCLOCK TIME (SEC) =          1
 

 ***WARNING: SOLVER PROBLEM. NUMERICAL SINGULARITY WHEN PROCESSING NODE 
             COMPOSITEPLATE-1.4 D.O.F. 3 RATIO = 69.7978E+12 .

               CONVERGENCE CHECKS FOR EQUILIBRIUM ITERATION     1


 AVERAGE FORCE                       3.51       TIME AVG. FORCE       0.501    
 LARGEST RESIDUAL FORCE             6.578E-07   AT NODE       5519   DOF  1
   INSTANCE: COMPOSITEPLATE-1                                                                
 LARGEST INCREMENT OF DISP.         1.884E-03   AT NODE          9   DOF  1
   INSTANCE: COMPOSITEPLATE-1                                                                
 LARGEST CORRECTION TO DISP.       -1.478E-06   AT NODE         19   DOF  1
   INSTANCE: COMPOSITEPLATE-1                                                                
          THE FORCE     EQUILIBRIUM EQUATIONS HAVE CONVERGED

 AVERAGE MOMENT                     6.854E-17   TIME AVG. MOMENT      5.723E-02
                                                (FROM FORCE     FIELD)
 LARGEST RESIDUAL MOMENT           -1.188E-15   AT NODE      13559   DOF  4
   INSTANCE: COMPOSITEPLATE-1                                                                
 LARGEST INCREMENT OF ROTATION     -2.143E-19   AT NODE        497   DOF  5
   INSTANCE: COMPOSITEPLATE-1                                                                
 LARGEST CORRECTION TO ROTATION    -3.504E-19   AT NODE        497   DOF  5
   INSTANCE: COMPOSITEPLATE-1                                                                
          THERE IS ZERO MOMENT    EVERYWHERE
          TIME INCREMENT MAY NOW INCREASE TO    3.325E-02

 ITERATION SUMMARY FOR THE INCREMENT:   1 TOTAL ITERATIONS, OF WHICH
   0 ARE SEVERE DISCONTINUITY ITERATIONS AND  1 ARE EQUILIBRIUM ITERATIONS.

 TIME INCREMENT COMPLETED  2.217E-02,  FRACTION OF STEP COMPLETED  6.650E-02
 STEP TIME COMPLETED       6.650E-02,  TOTAL TIME COMPLETED        6.650E-02


  INCREMENT    22 STARTS. ATTEMPT NUMBER  1, TIME INCREMENT  3.325E-02

  NUMBER OF EQUATIONS =     80220     NUMBER OF FLOATING PT. OPERATIONS =  7.65E+09

     CHECK POINT   START OF SOLVER    

     CHECK POINT  END OF SOLVER       

       ELAPSED USER TIME (SEC)      =  0.90000    
       ELAPSED SYSTEM TIME (SEC)    =  0.10000    
       ELAPSED TOTAL CPU TIME (SEC) =   1.0000    
       ELAPSED WALLCLOCK TIME (SEC) =          1
 

 ***WARNING: SOLVER PROBLEM. NUMERICAL SINGULARITY WHEN PROCESSING NODE 
             COMPOSITEPLATE-1.4 D.O.F. 3 RATIO = 30.1892E+12 .

               CONVERGENCE CHECKS FOR EQUILIBRIUM ITERATION     1


 AVERAGE FORCE                       5.28       TIME AVG. FORCE       0.718    
 LARGEST RESIDUAL FORCE            -3.266E-04   AT NODE       5098   DOF  1
   INSTANCE: COMPOSITEPLATE-1                                                                
 LARGEST INCREMENT OF DISP.         2.826E-03   AT NODE          9   DOF  1
   INSTANCE: COMPOSITEPLATE-1                                                                
 LARGEST CORRECTION TO DISP.       -3.146E-06   AT NODE         19   DOF  1
   INSTANCE: COMPOSITEPLATE-1                                                                
          THE FORCE     EQUILIBRIUM EQUATIONS HAVE CONVERGED

 AVERAGE MOMENT                     1.048E-16   TIME AVG. MOMENT      8.184E-02
                                                (FROM FORCE     FIELD)
 LARGEST RESIDUAL MOMENT           -1.793E-15   AT NODE      15275   DOF  4
   INSTANCE: COMPOSITEPLATE-1                                                                
 LARGEST INCREMENT OF ROTATION      2.650E-19   AT NODE        497   DOF  5
   INSTANCE: COMPOSITEPLATE-1                                                                
 LARGEST CORRECTION TO ROTATION     5.865E-19   AT NODE        497   DOF  5
   INSTANCE: COMPOSITEPLATE-1                                                                
          THERE IS ZERO MOMENT    EVERYWHERE
          TIME INCREMENT MAY NOW INCREASE TO    4.988E-02

 ITERATION SUMMARY FOR THE INCREMENT:   1 TOTAL ITERATIONS, OF WHICH
   0 ARE SEVERE DISCONTINUITY ITERATIONS AND  1 ARE EQUILIBRIUM ITERATIONS.

 TIME INCREMENT COMPLETED  3.325E-02,  FRACTION OF STEP COMPLETED  0.100    
 STEP TIME COMPLETED       0.100    ,  TOTAL TIME COMPLETED        0.100    


  INCREMENT    23 STARTS. ATTEMPT NUMBER  1, TIME INCREMENT  4.988E-02

  NUMBER OF EQUATIONS =     80220     NUMBER OF FLOATING PT. OPERATIONS =  7.65E+09

     CHECK POINT   START OF SOLVER    

     CHECK POINT  END OF SOLVER       

       ELAPSED USER TIME (SEC)      =  0.90000    
       ELAPSED SYSTEM TIME (SEC)    =   0.0000    
       ELAPSED TOTAL CPU TIME (SEC) =  0.90000    
       ELAPSED WALLCLOCK TIME (SEC) =          1
 

 ***WARNING: SOLVER PROBLEM. NUMERICAL SINGULARITY WHEN PROCESSING NODE 
             COMPOSITEPLATE-1.4 D.O.F. 3 RATIO = 19.9690E+12 .

               CONVERGENCE CHECKS FOR EQUILIBRIUM ITERATION     1


 AVERAGE FORCE                       7.92       TIME AVG. FORCE        1.03    
 LARGEST RESIDUAL FORCE             2.449E-03   AT NODE       7588   DOF  1
   INSTANCE: COMPOSITEPLATE-1                                                                
 LARGEST INCREMENT OF DISP.         4.240E-03   AT NODE          9   DOF  1
   INSTANCE: COMPOSITEPLATE-1                                                                
 LARGEST CORRECTION TO DISP.        2.129E-05   AT NODE       5593   DOF  1
   INSTANCE: COMPOSITEPLATE-1                                                                
          THE FORCE     EQUILIBRIUM EQUATIONS HAVE CONVERGED

 AVERAGE MOMENT                     1.576E-16   TIME AVG. MOMENT      0.117    
                                                (FROM FORCE     FIELD)
 LARGEST RESIDUAL MOMENT            2.470E-15   AT NODE      13841   DOF  4
   INSTANCE: COMPOSITEPLATE-1                                                                
 LARGEST INCREMENT OF ROTATION     -3.992E-19   AT NODE       9610   DOF  5
   INSTANCE: COMPOSITEPLATE-1                                                                
 LARGEST CORRECTION TO ROTATION    -5.898E-19   AT NODE       9389   DOF  5
   INSTANCE: COMPOSITEPLATE-1                                                                
          THERE IS ZERO MOMENT    EVERYWHERE
          TIME INCREMENT MAY NOW INCREASE TO    7.482E-02

 ITERATION SUMMARY FOR THE INCREMENT:   1 TOTAL ITERATIONS, OF WHICH
   0 ARE SEVERE DISCONTINUITY ITERATIONS AND  1 ARE EQUILIBRIUM ITERATIONS.

 TIME INCREMENT COMPLETED  4.988E-02,  FRACTION OF STEP COMPLETED  0.150    
 STEP TIME COMPLETED       0.150    ,  TOTAL TIME COMPLETED        0.150    


  INCREMENT    24 STARTS. ATTEMPT NUMBER  1, TIME INCREMENT  7.482E-02

  NUMBER OF EQUATIONS =     80220     NUMBER OF FLOATING PT. OPERATIONS =  7.65E+09

     CHECK POINT   START OF SOLVER    

     CHECK POINT  END OF SOLVER       

       ELAPSED USER TIME (SEC)      =  0.80000    
       ELAPSED SYSTEM TIME (SEC)    =   0.0000    
       ELAPSED TOTAL CPU TIME (SEC) =  0.80000    
       ELAPSED WALLCLOCK TIME (SEC) =          1
 

 ***WARNING: SOLVER PROBLEM. NUMERICAL SINGULARITY WHEN PROCESSING NODE 
             COMPOSITEPLATE-1.4 D.O.F. 3 RATIO = 61.3756E+12 .

               CONVERGENCE CHECKS FOR EQUILIBRIUM ITERATION     1


 AVERAGE FORCE                       11.9       TIME AVG. FORCE        1.48    
 LARGEST RESIDUAL FORCE            -8.554E-03   AT NODE       7605   DOF  1
   INSTANCE: COMPOSITEPLATE-1                                                                
 LARGEST INCREMENT OF DISP.         6.360E-03   AT NODE          9   DOF  1
   INSTANCE: COMPOSITEPLATE-1                                                                
 LARGEST CORRECTION TO DISP.        5.611E-05   AT NODE       5786   DOF  1
   INSTANCE: COMPOSITEPLATE-1                                                                
          FORCE     EQUILIBRIUM NOT ACHIEVED WITHIN TOLERANCE.

 AVERAGE MOMENT                     2.364E-16   TIME AVG. MOMENT      0.168    
                                                (FROM FORCE     FIELD)
 LARGEST RESIDUAL MOMENT           -4.313E-15   AT NODE      14282   DOF  4
   INSTANCE: COMPOSITEPLATE-1                                                                
 LARGEST INCREMENT OF ROTATION      9.010E-19   AT NODE         15   DOF  5
   INSTANCE: COMPOSITEPLATE-1                                                                
 LARGEST CORRECTION TO ROTATION     1.235E-18   AT NODE         15   DOF  5
   INSTANCE: COMPOSITEPLATE-1                                                                
          THERE IS ZERO MOMENT    EVERYWHERE

  NUMBER OF EQUATIONS =     80220     NUMBER OF FLOATING PT. OPERATIONS =  7.65E+09

     CHECK POINT   START OF SOLVER    

     CHECK POINT  END OF SOLVER       

       ELAPSED USER TIME (SEC)      =  0.90000    
       ELAPSED SYSTEM TIME (SEC)    =   0.0000    
       ELAPSED TOTAL CPU TIME (SEC) =  0.90000    
       ELAPSED WALLCLOCK TIME (SEC) =          1
 

 ***WARNING: SOLVER PROBLEM. NUMERICAL SINGULARITY WHEN PROCESSING NODE 
             COMPOSITEPLATE-1.4 D.O.F. 3 RATIO = 171.343E+12  .

               CONVERGENCE CHECKS FOR EQUILIBRIUM ITERATION     2


 AVERAGE FORCE                       11.9       TIME AVG. FORCE        1.48    
 LARGEST RESIDUAL FORCE             2.731E-04   AT NODE       5454   DOF  1
   INSTANCE: COMPOSITEPLATE-1                                                                
 LARGEST INCREMENT OF DISP.         6.360E-03   AT NODE          9   DOF  1
   INSTANCE: COMPOSITEPLATE-1                                                                
 LARGEST CORRECTION TO DISP.        8.455E-07   AT NODE       7934   DOF  1
   INSTANCE: COMPOSITEPLATE-1                                                                
          THE FORCE     EQUILIBRIUM EQUATIONS HAVE CONVERGED

 AVERAGE MOMENT                     2.226E-16   TIME AVG. MOMENT      0.168    
                                                (FROM FORCE     FIELD)
 LARGEST RESIDUAL MOMENT            4.279E-15   AT NODE      11029   DOF  4
   INSTANCE: COMPOSITEPLATE-1                                                                
 LARGEST INCREMENT OF ROTATION     -5.903E-19   AT NODE        464   DOF  5
   INSTANCE: COMPOSITEPLATE-1                                                                
 LARGEST CORRECTION TO ROTATION    -7.692E-19   AT NODE        403   DOF  5
   INSTANCE: COMPOSITEPLATE-1                                                                
          THERE IS ZERO MOMENT    EVERYWHERE
          TIME INCREMENT MAY NOW INCREASE TO    0.112    

 ITERATION SUMMARY FOR THE INCREMENT:   2 TOTAL ITERATIONS, OF WHICH
   0 ARE SEVERE DISCONTINUITY ITERATIONS AND  2 ARE EQUILIBRIUM ITERATIONS.

 TIME INCREMENT COMPLETED  7.482E-02,  FRACTION OF STEP COMPLETED  0.224    
 STEP TIME COMPLETED       0.224    ,  TOTAL TIME COMPLETED        0.224    


  INCREMENT    25 STARTS. ATTEMPT NUMBER  1, TIME INCREMENT  0.112    

  NUMBER OF EQUATIONS =     80220     NUMBER OF FLOATING PT. OPERATIONS =  7.65E+09

     CHECK POINT   START OF SOLVER    

     CHECK POINT  END OF SOLVER       

       ELAPSED USER TIME (SEC)      =  0.80000    
       ELAPSED SYSTEM TIME (SEC)    =   0.0000    
       ELAPSED TOTAL CPU TIME (SEC) =  0.80000    
       ELAPSED WALLCLOCK TIME (SEC) =          1
 

 ***WARNING: SOLVER PROBLEM. NUMERICAL SINGULARITY WHEN PROCESSING NODE 
             COMPOSITEPLATE-1.4 D.O.F. 3 RATIO = 42.7845E+12 .

               CONVERGENCE CHECKS FOR EQUILIBRIUM ITERATION     1


 AVERAGE FORCE                       17.5       TIME AVG. FORCE        2.12    
 LARGEST RESIDUAL FORCE              5.61       AT NODE       7475   DOF  1
   INSTANCE: COMPOSITEPLATE-1                                                                
 LARGEST INCREMENT OF DISP.         9.539E-03   AT NODE          9   DOF  1
   INSTANCE: COMPOSITEPLATE-1                                                                
 LARGEST CORRECTION TO DISP.        4.546E-04   AT NODE       5444   DOF  1
   INSTANCE: COMPOSITEPLATE-1                                                                
          FORCE     EQUILIBRIUM NOT ACHIEVED WITHIN TOLERANCE.

 AVERAGE MOMENT                     3.686E-16   TIME AVG. MOMENT      0.242    
                                                (FROM FORCE     FIELD)
 LARGEST RESIDUAL MOMENT           -3.750E-14   AT NODE        169   DOF  5
   INSTANCE: COMPOSITEPLATE-1                                                                
 LARGEST INCREMENT OF ROTATION      7.550E-18   AT NODE        169   DOF  5
   INSTANCE: COMPOSITEPLATE-1                                                                
 LARGEST CORRECTION TO ROTATION     7.482E-18   AT NODE        169   DOF  5
   INSTANCE: COMPOSITEPLATE-1                                                                
          THERE IS ZERO MOMENT    EVERYWHERE

  NUMBER OF EQUATIONS =     80220     NUMBER OF FLOATING PT. OPERATIONS =  7.65E+09

     CHECK POINT   START OF SOLVER    

     CHECK POINT  END OF SOLVER       

       ELAPSED USER TIME (SEC)      =  0.90000    
       ELAPSED SYSTEM TIME (SEC)    =   0.0000    
       ELAPSED TOTAL CPU TIME (SEC) =  0.90000    
       ELAPSED WALLCLOCK TIME (SEC) =          1
 

 ***WARNING: SOLVER PROBLEM. NUMERICAL SINGULARITY WHEN PROCESSING NODE 
             COMPOSITEPLATE-1.4 D.O.F. 3 RATIO = 17.2369E+12 .

               CONVERGENCE CHECKS FOR EQUILIBRIUM ITERATION     2


 AVERAGE FORCE                       17.6       TIME AVG. FORCE        2.13    
 LARGEST RESIDUAL FORCE            -0.474       AT NODE       7475   DOF  2
   INSTANCE: COMPOSITEPLATE-1                                                                
 LARGEST INCREMENT OF DISP.         9.539E-03   AT NODE          9   DOF  1
   INSTANCE: COMPOSITEPLATE-1                                                                
 LARGEST CORRECTION TO DISP.       -4.785E-05   AT NODE       5483   DOF  1
   INSTANCE: COMPOSITEPLATE-1                                                                
          FORCE     EQUILIBRIUM NOT ACHIEVED WITHIN TOLERANCE.

 AVERAGE MOMENT                     3.522E-16   TIME AVG. MOMENT      0.242    
                                                (FROM FORCE     FIELD)
 LARGEST RESIDUAL MOMENT           -3.784E-14   AT NODE       7475   DOF  5
   INSTANCE: COMPOSITEPLATE-1                                                                
 LARGEST INCREMENT OF ROTATION      4.764E-18   AT NODE        210   DOF  5
   INSTANCE: COMPOSITEPLATE-1                                                                
 LARGEST CORRECTION TO ROTATION     9.940E-18   AT NODE        210   DOF  5
   INSTANCE: COMPOSITEPLATE-1                                                                
          THERE IS ZERO MOMENT    EVERYWHERE

  NUMBER OF EQUATIONS =     80220     NUMBER OF FLOATING PT. OPERATIONS =  7.65E+09

     CHECK POINT   START OF SOLVER    

     CHECK POINT  END OF SOLVER       

       ELAPSED USER TIME (SEC)      =   1.0000    
       ELAPSED SYSTEM TIME (SEC)    =   0.0000    
       ELAPSED TOTAL CPU TIME (SEC) =   1.0000    
       ELAPSED WALLCLOCK TIME (SEC) =          1
 

 ***WARNING: SOLVER PROBLEM. NUMERICAL SINGULARITY WHEN PROCESSING NODE 
             COMPOSITEPLATE-1.4 D.O.F. 3 RATIO = 29.7926E+12 .

               CONVERGENCE CHECKS FOR EQUILIBRIUM ITERATION     3


 AVERAGE FORCE                       17.6       TIME AVG. FORCE        2.13    
 LARGEST RESIDUAL FORCE             1.493E-02   AT NODE       7475   DOF  2
   INSTANCE: COMPOSITEPLATE-1                                                                
 LARGEST INCREMENT OF DISP.         9.539E-03   AT NODE          9   DOF  1
   INSTANCE: COMPOSITEPLATE-1                                                                
 LARGEST CORRECTION TO DISP.        8.388E-06   AT NODE        211   DOF  1
   INSTANCE: COMPOSITEPLATE-1                                                                
          FORCE     EQUILIBRIUM NOT ACHIEVED WITHIN TOLERANCE.

 AVERAGE MOMENT                     3.476E-16   TIME AVG. MOMENT      0.242    
                                                (FROM FORCE     FIELD)
 LARGEST RESIDUAL MOMENT           -6.335E-15   AT NODE      14284   DOF  4
   INSTANCE: COMPOSITEPLATE-1                                                                
 LARGEST INCREMENT OF ROTATION     -3.798E-18   AT NODE        210   DOF  5
   INSTANCE: COMPOSITEPLATE-1                                                                
 LARGEST CORRECTION TO ROTATION    -8.562E-18   AT NODE        210   DOF  5
   INSTANCE: COMPOSITEPLATE-1                                                                
          THERE IS ZERO MOMENT    EVERYWHERE

  NUMBER OF EQUATIONS =     80220     NUMBER OF FLOATING PT. OPERATIONS =  7.65E+09

     CHECK POINT   START OF SOLVER    

     CHECK POINT  END OF SOLVER       

       ELAPSED USER TIME (SEC)      =  0.80000    
       ELAPSED SYSTEM TIME (SEC)    =  0.10000    
       ELAPSED TOTAL CPU TIME (SEC) =  0.90000    
       ELAPSED WALLCLOCK TIME (SEC) =          1
 

 ***WARNING: SOLVER PROBLEM. NUMERICAL SINGULARITY WHEN PROCESSING NODE 
             COMPOSITEPLATE-1.4 D.O.F. 3 RATIO = 17.5026E+12 .

               CONVERGENCE CHECKS FOR EQUILIBRIUM ITERATION     4


 AVERAGE FORCE                       17.6       TIME AVG. FORCE        2.13    
 LARGEST RESIDUAL FORCE            -4.308E-04   AT NODE       7476   DOF  1
   INSTANCE: COMPOSITEPLATE-1                                                                
 LARGEST INCREMENT OF DISP.         9.539E-03   AT NODE          9   DOF  1
   INSTANCE: COMPOSITEPLATE-1                                                                
 LARGEST CORRECTION TO DISP.        1.370E-07   AT NODE       7475   DOF  2
   INSTANCE: COMPOSITEPLATE-1                                                                
          THE FORCE     EQUILIBRIUM EQUATIONS HAVE CONVERGED

 AVERAGE MOMENT                     3.470E-16   TIME AVG. MOMENT      0.242    
                                                (FROM FORCE     FIELD)
 LARGEST RESIDUAL MOMENT           -5.621E-15   AT NODE      14113   DOF  4
   INSTANCE: COMPOSITEPLATE-1                                                                
 LARGEST INCREMENT OF ROTATION      2.854E-18   AT NODE        210   DOF  5
   INSTANCE: COMPOSITEPLATE-1                                                                
 LARGEST CORRECTION TO ROTATION     6.652E-18   AT NODE        210   DOF  5
   INSTANCE: COMPOSITEPLATE-1                                                                
[...]
   INSTANCE: COMPOSITEPLATE-1                                                                
 LARGEST CORRECTION TO ROTATION    -1.423E-13   AT NODE        440   DOF  5
   INSTANCE: COMPOSITEPLATE-1                                                                
          THERE IS ZERO MOMENT    EVERYWHERE

  NUMBER OF EQUATIONS =     80220     NUMBER OF FLOATING PT. OPERATIONS =  7.65E+09

     CHECK POINT   START OF SOLVER    

     CHECK POINT  END OF SOLVER       

       ELAPSED USER TIME (SEC)      =  0.80000    
       ELAPSED SYSTEM TIME (SEC)    =   0.0000    
       ELAPSED TOTAL CPU TIME (SEC) =  0.80000    
       ELAPSED WALLCLOCK TIME (SEC) =          1
 

 ***WARNING: SOLVER PROBLEM. NUMERICAL SINGULARITY WHEN PROCESSING NODE 
             COMPOSITEPLATE-1.4 D.O.F. 3 RATIO = 15.4287E+12 .

               CONVERGENCE CHECKS FOR EQUILIBRIUM ITERATION     2


 AVERAGE FORCE                       40.5       TIME AVG. FORCE        10.4    
 LARGEST RESIDUAL FORCE              4.15       AT NODE       7596   DOF  1
   INSTANCE: COMPOSITEPLATE-1                                                                
 LARGEST INCREMENT OF DISP.        -7.132E-03   AT NODE       5287   DOF  2
   INSTANCE: COMPOSITEPLATE-1                                                                
 LARGEST CORRECTION TO DISP.       -1.540E-04   AT NODE        520   DOF  1
   INSTANCE: COMPOSITEPLATE-1                                                                
          FORCE     EQUILIBRIUM NOT ACHIEVED WITHIN TOLERANCE.

 AVERAGE MOMENT                     2.350E-14   TIME AVG. MOMENT       1.56    
                                                (FROM FORCE     FIELD)
 LARGEST RESIDUAL MOMENT            2.056E-12   AT NODE      14844   DOF  5
   INSTANCE: COMPOSITEPLATE-1                                                                
 LARGEST INCREMENT OF ROTATION     -5.458E-14   AT NODE        440   DOF  5
   INSTANCE: COMPOSITEPLATE-1                                                                
 LARGEST CORRECTION TO ROTATION    -1.942E-14   AT NODE      14844   DOF  5
   INSTANCE: COMPOSITEPLATE-1                                                                
          THERE IS ZERO MOMENT    EVERYWHERE

  NUMBER OF EQUATIONS =     80220     NUMBER OF FLOATING PT. OPERATIONS =  7.65E+09

     CHECK POINT   START OF SOLVER    

     CHECK POINT  END OF SOLVER       

       ELAPSED USER TIME (SEC)      =  0.80000    
       ELAPSED SYSTEM TIME (SEC)    =   0.0000    
       ELAPSED TOTAL CPU TIME (SEC) =  0.80000    
       ELAPSED WALLCLOCK TIME (SEC) =          1
 

 ***WARNING: SOLVER PROBLEM. NUMERICAL SINGULARITY WHEN PROCESSING NODE 
             COMPOSITEPLATE-1.4 D.O.F. 3 RATIO = 55.7293E+12 .

               CONVERGENCE CHECKS FOR EQUILIBRIUM ITERATION     3


 AVERAGE FORCE                       40.5       TIME AVG. FORCE        10.4    
 LARGEST RESIDUAL FORCE            -6.166E-02   AT NODE       5356   DOF  1
   INSTANCE: COMPOSITEPLATE-1                                                                
 LARGEST INCREMENT OF DISP.        -7.138E-03   AT NODE       5287   DOF  2
   INSTANCE: COMPOSITEPLATE-1                                                                
 LARGEST CORRECTION TO DISP.        4.990E-05   AT NODE        883   DOF  1
   INSTANCE: COMPOSITEPLATE-1                                                                
          FORCE     EQUILIBRIUM NOT ACHIEVED WITHIN TOLERANCE.

 AVERAGE MOMENT                     2.302E-14   TIME AVG. MOMENT       1.56    
                                                (FROM FORCE     FIELD)
 LARGEST RESIDUAL MOMENT            1.698E-13   AT NODE      14860   DOF  4
   INSTANCE: COMPOSITEPLATE-1                                                                
 LARGEST INCREMENT OF ROTATION     -5.437E-14   AT NODE        440   DOF  5
   INSTANCE: COMPOSITEPLATE-1                                                                
 LARGEST CORRECTION TO ROTATION     9.612E-16   AT NODE      14844   DOF  5
   INSTANCE: COMPOSITEPLATE-1                                                                
          THERE IS ZERO MOMENT    EVERYWHERE

  NUMBER OF EQUATIONS =     80220     NUMBER OF FLOATING PT. OPERATIONS =  7.65E+09

     CHECK POINT   START OF SOLVER    

     CHECK POINT  END OF SOLVER       

       ELAPSED USER TIME (SEC)      =  0.80000    
       ELAPSED SYSTEM TIME (SEC)    =   0.0000    
       ELAPSED TOTAL CPU TIME (SEC) =  0.80000    
       ELAPSED WALLCLOCK TIME (SEC) =          1
 

 ***WARNING: SOLVER PROBLEM. NUMERICAL SINGULARITY WHEN PROCESSING NODE 
             COMPOSITEPLATE-1.4 D.O.F. 3 RATIO = 23.8084E+12 .

               CONVERGENCE CHECKS FOR EQUILIBRIUM ITERATION     4


 AVERAGE FORCE                       40.5       TIME AVG. FORCE        10.4    
 LARGEST RESIDUAL FORCE            -1.014E-03   AT NODE       5392   DOF  1
   INSTANCE: COMPOSITEPLATE-1                                                                
 LARGEST INCREMENT OF DISP.        -7.138E-03   AT NODE       5287   DOF  2
   INSTANCE: COMPOSITEPLATE-1                                                                
 LARGEST CORRECTION TO DISP.       -1.722E-06   AT NODE       7738   DOF  1
   INSTANCE: COMPOSITEPLATE-1                                                                
          THE FORCE     EQUILIBRIUM EQUATIONS HAVE CONVERGED

 AVERAGE MOMENT                     2.305E-14   TIME AVG. MOMENT       1.56    
                                                (FROM FORCE     FIELD)
 LARGEST RESIDUAL MOMENT            2.842E-14   AT NODE       5487   DOF  5
   INSTANCE: COMPOSITEPLATE-1                                                                
 LARGEST INCREMENT OF ROTATION     -5.438E-14   AT NODE        440   DOF  5
   INSTANCE: COMPOSITEPLATE-1                                                                
 LARGEST CORRECTION TO ROTATION     1.028E-16   AT NODE         71   DOF  5
   INSTANCE: COMPOSITEPLATE-1                                                                
          THERE IS ZERO MOMENT    EVERYWHERE

 ITERATION SUMMARY FOR THE INCREMENT:   4 TOTAL ITERATIONS, OF WHICH
   0 ARE SEVERE DISCONTINUITY ITERATIONS AND  4 ARE EQUILIBRIUM ITERATIONS.

 TIME INCREMENT COMPLETED  6.741E-02,  FRACTION OF STEP COMPLETED  0.915    
 STEP TIME COMPLETED       0.915    ,  TOTAL TIME COMPLETED        0.915    


  INCREMENT    36 STARTS. ATTEMPT NUMBER  1, TIME INCREMENT  6.741E-02

  NUMBER OF EQUATIONS =     80220     NUMBER OF FLOATING PT. OPERATIONS =  7.65E+09

     CHECK POINT   START OF SOLVER    

     CHECK POINT  END OF SOLVER       

       ELAPSED USER TIME (SEC)      =   1.0000    
       ELAPSED SYSTEM TIME (SEC)    =   0.0000    
       ELAPSED TOTAL CPU TIME (SEC) =   1.0000    
       ELAPSED WALLCLOCK TIME (SEC) =          1
 

 ***WARNING: SOLVER PROBLEM. NUMERICAL SINGULARITY WHEN PROCESSING NODE 
             COMPOSITEPLATE-1.4 D.O.F. 3 RATIO = 16.1143E+12 .

               CONVERGENCE CHECKS FOR EQUILIBRIUM ITERATION     1


 AVERAGE FORCE                       41.7       TIME AVG. FORCE        11.3    
 LARGEST RESIDUAL FORCE              13.4       AT NODE       7590   DOF  1
   INSTANCE: COMPOSITEPLATE-1                                                                
 LARGEST INCREMENT OF DISP.        -8.188E-03   AT NODE       5287   DOF  2
   INSTANCE: COMPOSITEPLATE-1                                                                
 LARGEST CORRECTION TO DISP.        1.417E-03   AT NODE      12143   DOF  1
   INSTANCE: COMPOSITEPLATE-1                                                                
          FORCE     EQUILIBRIUM NOT ACHIEVED WITHIN TOLERANCE.

 AVERAGE MOMENT                     3.456E-14   TIME AVG. MOMENT       1.71    
                                                (FROM FORCE     FIELD)
 LARGEST RESIDUAL MOMENT            4.110E-10   AT NODE      12564   DOF  5
   INSTANCE: COMPOSITEPLATE-1                                                                
 LARGEST INCREMENT OF ROTATION     -1.154E-14   AT NODE        440   DOF  5
   INSTANCE: COMPOSITEPLATE-1                                                                
 LARGEST CORRECTION TO ROTATION     4.785E-14   AT NODE      14843   DOF  5
   INSTANCE: COMPOSITEPLATE-1                                                                
          THERE IS ZERO MOMENT    EVERYWHERE

  NUMBER OF EQUATIONS =     80220     NUMBER OF FLOATING PT. OPERATIONS =  7.65E+09

     CHECK POINT   START OF SOLVER    

     CHECK POINT  END OF SOLVER       

       ELAPSED USER TIME (SEC)      =  0.90000    
       ELAPSED SYSTEM TIME (SEC)    =   0.0000    
       ELAPSED TOTAL CPU TIME (SEC) =  0.90000    
       ELAPSED WALLCLOCK TIME (SEC) =          1
 

 ***WARNING: SOLVER PROBLEM. NUMERICAL SINGULARITY WHEN PROCESSING NODE 
             COMPOSITEPLATE-1.4 D.O.F. 3 RATIO = 671.715E+12  .

               CONVERGENCE CHECKS FOR EQUILIBRIUM ITERATION     2


 AVERAGE FORCE                       41.8       TIME AVG. FORCE        11.3    
 LARGEST RESIDUAL FORCE              3.44       AT NODE       5360   DOF  1
   INSTANCE: COMPOSITEPLATE-1                                                                
 LARGEST INCREMENT OF DISP.        -8.164E-03   AT NODE       7686   DOF  2
   INSTANCE: COMPOSITEPLATE-1                                                                
 LARGEST CORRECTION TO DISP.        1.589E-04   AT NODE       5400   DOF  1
   INSTANCE: COMPOSITEPLATE-1                                                                
          FORCE     EQUILIBRIUM NOT ACHIEVED WITHIN TOLERANCE.

 AVERAGE MOMENT                     3.186E-13   TIME AVG. MOMENT       1.71    
                                                (FROM FORCE     FIELD)
 LARGEST RESIDUAL MOMENT           -7.044E-12   AT NODE      12564   DOF  5
   INSTANCE: COMPOSITEPLATE-1                                                                
 LARGEST INCREMENT OF ROTATION     -3.113E-13   AT NODE        440   DOF  5
   INSTANCE: COMPOSITEPLATE-1                                                                
 LARGEST CORRECTION TO ROTATION    -2.998E-13   AT NODE        440   DOF  5
   INSTANCE: COMPOSITEPLATE-1                                                                
          THERE IS ZERO MOMENT    EVERYWHERE

  NUMBER OF EQUATIONS =     80220     NUMBER OF FLOATING PT. OPERATIONS =  7.65E+09

     CHECK POINT   START OF SOLVER    

     CHECK POINT  END OF SOLVER       

       ELAPSED USER TIME (SEC)      =  0.80000    
       ELAPSED SYSTEM TIME (SEC)    =   0.0000    
       ELAPSED TOTAL CPU TIME (SEC) =  0.80000    
       ELAPSED WALLCLOCK TIME (SEC) =          1
 

 ***WARNING: SOLVER PROBLEM. NUMERICAL SINGULARITY WHEN PROCESSING NODE 
             COMPOSITEPLATE-1.4 D.O.F. 3 RATIO = 41.9946E+12 .

               CONVERGENCE CHECKS FOR EQUILIBRIUM ITERATION     3


 AVERAGE FORCE                       41.8       TIME AVG. FORCE        11.3    
 LARGEST RESIDUAL FORCE            -0.300       AT NODE       7556   DOF  1
   INSTANCE: COMPOSITEPLATE-1                                                                
 LARGEST INCREMENT OF DISP.        -8.168E-03   AT NODE       7686   DOF  2
   INSTANCE: COMPOSITEPLATE-1                                                                
 LARGEST CORRECTION TO DISP.       -4.209E-05   AT NODE       1525   DOF  1
   INSTANCE: COMPOSITEPLATE-1                                                                
          FORCE     EQUILIBRIUM NOT ACHIEVED WITHIN TOLERANCE.

 AVERAGE MOMENT                     3.131E-13   TIME AVG. MOMENT       1.71    
                                                (FROM FORCE     FIELD)
 LARGEST RESIDUAL MOMENT            2.652E-12   AT NODE       6911   DOF  4
   INSTANCE: COMPOSITEPLATE-1                                                                
 LARGEST INCREMENT OF ROTATION     -3.063E-13   AT NODE        440   DOF  5
   INSTANCE: COMPOSITEPLATE-1                                                                
 LARGEST CORRECTION TO ROTATION     5.021E-15   AT NODE        440   DOF  5
   INSTANCE: COMPOSITEPLATE-1                                                                
          THERE IS ZERO MOMENT    EVERYWHERE

  NUMBER OF EQUATIONS =     80220     NUMBER OF FLOATING PT. OPERATIONS =  7.65E+09

     CHECK POINT   START OF SOLVER    

     CHECK POINT  END OF SOLVER       

       ELAPSED USER TIME (SEC)      =  0.90000    
       ELAPSED SYSTEM TIME (SEC)    =   0.0000    
       ELAPSED TOTAL CPU TIME (SEC) =  0.90000    
       ELAPSED WALLCLOCK TIME (SEC) =          1
 

 ***WARNING: SOLVER PROBLEM. NUMERICAL SINGULARITY WHEN PROCESSING NODE 
             COMPOSITEPLATE-1.4 D.O.F. 3 RATIO = 20.6244E+12 .

               CONVERGENCE CHECKS FOR EQUILIBRIUM ITERATION     4


 AVERAGE FORCE                       41.8       TIME AVG. FORCE        11.3    
 LARGEST RESIDUAL FORCE            -1.122E-03   AT NODE      10890   DOF  1
   INSTANCE: COMPOSITEPLATE-1                                                                
 LARGEST INCREMENT OF DISP.        -8.168E-03   AT NODE       7686   DOF  2
   INSTANCE: COMPOSITEPLATE-1                                                                
 LARGEST CORRECTION TO DISP.       -2.288E-06   AT NODE       7556   DOF  1
   INSTANCE: COMPOSITEPLATE-1                                                                
          THE FORCE     EQUILIBRIUM EQUATIONS HAVE CONVERGED

 AVERAGE MOMENT                     3.131E-13   TIME AVG. MOMENT       1.71    
                                                (FROM FORCE     FIELD)
 LARGEST RESIDUAL MOMENT            2.507E-14   AT NODE       7433   DOF  5
   INSTANCE: COMPOSITEPLATE-1                                                                
 LARGEST INCREMENT OF ROTATION     -3.063E-13   AT NODE        440   DOF  5
   INSTANCE: COMPOSITEPLATE-1                                                                
 LARGEST CORRECTION TO ROTATION     2.968E-16   AT NODE        249   DOF  5
   INSTANCE: COMPOSITEPLATE-1                                                                
          THERE IS ZERO MOMENT    EVERYWHERE

 ITERATION SUMMARY FOR THE INCREMENT:   4 TOTAL ITERATIONS, OF WHICH
   0 ARE SEVERE DISCONTINUITY ITERATIONS AND  4 ARE EQUILIBRIUM ITERATIONS.

 TIME INCREMENT COMPLETED  6.741E-02,  FRACTION OF STEP COMPLETED  0.982    
 STEP TIME COMPLETED       0.982    ,  TOTAL TIME COMPLETED        0.982    


  INCREMENT    37 STARTS. ATTEMPT NUMBER  1, TIME INCREMENT  1.761E-02

  NUMBER OF EQUATIONS =     80220     NUMBER OF FLOATING PT. OPERATIONS =  7.65E+09

     CHECK POINT   START OF SOLVER    

     CHECK POINT  END OF SOLVER       

       ELAPSED USER TIME (SEC)      =  0.80000    
       ELAPSED SYSTEM TIME (SEC)    =   0.0000    
       ELAPSED TOTAL CPU TIME (SEC) =  0.80000    
       ELAPSED WALLCLOCK TIME (SEC) =          1
 

 ***WARNING: SOLVER PROBLEM. NUMERICAL SINGULARITY WHEN PROCESSING NODE 
             COMPOSITEPLATE-1.4 D.O.F. 3 RATIO = 78.2662E+12 .

               CONVERGENCE CHECKS FOR EQUILIBRIUM ITERATION     1


 AVERAGE FORCE                       42.0       TIME AVG. FORCE        12.1    
 LARGEST RESIDUAL FORCE            -0.430       AT NODE       7552   DOF  1
   INSTANCE: COMPOSITEPLATE-1                                                                
 LARGEST INCREMENT OF DISP.        -2.255E-03   AT NODE       7686   DOF  2
   INSTANCE: COMPOSITEPLATE-1                                                                
 LARGEST CORRECTION TO DISP.        1.379E-04   AT NODE       9069   DOF  1
   INSTANCE: COMPOSITEPLATE-1                                                                
          FORCE     EQUILIBRIUM NOT ACHIEVED WITHIN TOLERANCE.

 AVERAGE MOMENT                     3.372E-13   TIME AVG. MOMENT       1.85    
                                                (FROM FORCE     FIELD)
 LARGEST RESIDUAL MOMENT            1.063E-12   AT NODE      12564   DOF  5
   INSTANCE: COMPOSITEPLATE-1                                                                
 LARGEST INCREMENT OF ROTATION     -2.522E-14   AT NODE      12565   DOF  4
   INSTANCE: COMPOSITEPLATE-1                                                                
 LARGEST CORRECTION TO ROTATION     5.844E-14   AT NODE        440   DOF  5
   INSTANCE: COMPOSITEPLATE-1                                                                
          THERE IS ZERO MOMENT    EVERYWHERE

  NUMBER OF EQUATIONS =     80220     NUMBER OF FLOATING PT. OPERATIONS =  7.65E+09

     CHECK POINT   START OF SOLVER    

     CHECK POINT  END OF SOLVER       

       ELAPSED USER TIME (SEC)      =  0.80000    
       ELAPSED SYSTEM TIME (SEC)    =   0.0000    
       ELAPSED TOTAL CPU TIME (SEC) =  0.80000    
       ELAPSED WALLCLOCK TIME (SEC) =          1
 

 ***WARNING: SOLVER PROBLEM. NUMERICAL SINGULARITY WHEN PROCESSING NODE 
             COMPOSITEPLATE-1.4 D.O.F. 3 RATIO = 21.2975E+12 .

               CONVERGENCE CHECKS FOR EQUILIBRIUM ITERATION     2


 AVERAGE FORCE                       42.0       TIME AVG. FORCE        12.1    
 LARGEST RESIDUAL FORCE             2.607E-02   AT NODE       9258   DOF  1
   INSTANCE: COMPOSITEPLATE-1                                                                
 LARGEST INCREMENT OF DISP.        -2.255E-03   AT NODE       7686   DOF  2
   INSTANCE: COMPOSITEPLATE-1                                                                
 LARGEST CORRECTION TO DISP.        4.501E-06   AT NODE      10676   DOF  1
   INSTANCE: COMPOSITEPLATE-1                                                                
          THE FORCE     EQUILIBRIUM EQUATIONS HAVE CONVERGED

 AVERAGE MOMENT                     3.376E-13   TIME AVG. MOMENT       1.85    
                                                (FROM FORCE     FIELD)
 LARGEST RESIDUAL MOMENT            5.823E-13   AT NODE       1774   DOF  4
   INSTANCE: COMPOSITEPLATE-1                                                                
 LARGEST INCREMENT OF ROTATION     -2.549E-14   AT NODE      12565   DOF  4
   INSTANCE: COMPOSITEPLATE-1                                                                
 LARGEST CORRECTION TO ROTATION    -4.884E-16   AT NODE        440   DOF  5
   INSTANCE: COMPOSITEPLATE-1                                                                
          THERE IS ZERO MOMENT    EVERYWHERE

 ITERATION SUMMARY FOR THE INCREMENT:   2 TOTAL ITERATIONS, OF WHICH
   0 ARE SEVERE DISCONTINUITY ITERATIONS AND  2 ARE EQUILIBRIUM ITERATIONS.

 TIME INCREMENT COMPLETED  1.761E-02,  FRACTION OF STEP COMPLETED   1.00    
 STEP TIME COMPLETED        1.00    ,  TOTAL TIME COMPLETED         1.00    


          THE ANALYSIS HAS BEEN COMPLETED



     ANALYSIS SUMMARY:
     TOTAL OF         37  INCREMENTS
                       3  CUTBACKS IN AUTOMATIC INCREMENTATION
                      86  ITERATIONS INCLUDING CONTACT ITERATIONS IF PRESENT
                      86  PASSES THROUGH THE EQUATION SOLVER OF WHICH 
                      86  INVOLVE MATRIX DECOMPOSITION, INCLUDING
                       0  DECOMPOSITION(S) OF THE MASS MATRIX
                       1  REORDERING OF EQUATIONS TO MINIMIZE WAVEFRONT
                       0  ADDITIONAL RESIDUAL EVALUATIONS FOR LINE SEARCHES
                       0  ADDITIONAL OPERATOR EVALUATIONS FOR LINE SEARCHES
                       2  WARNING MESSAGES DURING USER INPUT PROCESSING
                     126  WARNING MESSAGES DURING ANALYSIS
                      88  ANALYSIS WARNINGS ARE NUMERICAL PROBLEM MESSAGES
                      21  ANALYSIS WARNINGS ARE NEGATIVE EIGENVALUE MESSAGES
                       0  ERROR MESSAGES



     JOB TIME SUMMARY
       USER TIME (SEC)      =   220.20    
       SYSTEM TIME (SEC)    =   7.2000    
       TOTAL CPU TIME (SEC) =   227.40    
       WALLCLOCK TIME (SEC) =        228
