*Heading
** Job name: Composite_L10_W10_t1_Sa2_Sb4_X015_Y085 Model name: Composite_L10_W10_t1_Sa2_Sb4_X015_Y085
** Generated by: Abaqus/CAE 2017
*Preprint, echo=NO, model=NO, history=NO, contact=NO
**
** PARTS
**
*Part, name=CompositePlate
*Node
      1,           1.,           0.,           0.
      2,           2.,           0.,           0.
      3,           0.,           4.,           0.
      4,           0.,           2.,           0.
      5,           0.,          -2.,           0.
      6,           0.,          -4.,           0.
      7,          -2.,           0.,           0.
      8,          -1.,           0.,           0.
      9,           5.,           0.,           0.
     10,           5.,           5.,           0.
     11,           0.,           5.,           0.
     12,           0.,          -5.,           0.
     13,           5.,          -5.,           0.
     14,          -5.,           0.,           0.
     15,          -5.,           5.,           0.
     16,          -5.,          -5.,           0.
     17,   1.08137691,           0.,           0.
     18,   1.16310441,           0.,           0.
     19,   1.24518406,           0.,           0.
     20,   1.32761741,           0.,           0.
** ... 16024 like lines cut
*Element, type=STRI65
  1,    1,   17,  100, 4087, 4088, 4089
  2,   17,  523,  100, 4090, 4091, 4088
  3,   17,   18,  523, 4092, 4093, 4090
  4,   18,  524,  523, 4094, 4095, 4093
  5,   18,   19,  524, 4096, 4097, 4094
  6,   19,  525,  524, 4098, 4099, 4097
  7,   19,   20,  525, 4100, 4101, 4098
  8,   20,  526,  525, 4102, 4103, 4101
  9,   20,   21,  526, 4104, 4105, 4102
 10,   21,  527,  526, 4106, 4107, 4105
 11,   21,   22,  527, 4108, 4109, 4106
 12,   22,  528,  527, 4110, 4111, 4109
 13,   22,   23,  528, 4112, 4113, 4110
 14,   23,  529,  528, 4114, 4115, 4113
 15,   23,   24,  529, 4116, 4117, 4114
 16,   24,  530,  529, 4118, 4119, 4117
 17,   24,   25,  530, 4120, 4121, 4118
 18,   25,  531,  530, 4122, 4123, 4121
 19,   25,   26,  531, 4124, 4125, 4122
 20,   26,  532,  531, 4126, 4127, 4125
** ... 7852 like lines cut
** Region: (CFRPLayup-1: Generated From Layup)
*Elset, elset=CFRPLayup-1, generate
    1,  7872,     1
** Section: CFRPLayup-1
*Shell Section, elset=CFRPLayup-1, composite, layup=CFRPLayup, symmetric
0.125, 1, CFRP, 45., Ply-1
0.125, 1, CFRP, 90., Ply-2
0.125, 1, CFRP, -45., Ply-3
0.125, 1, CFRP, 0., Ply-4
*End Part
**  
**
** ASSEMBLY
**
*Assembly, name=Assembly
**  
*Instance, name=CompositePlate-1, part=CompositePlate
*End Instance
**  
*Nset, nset=_PickedSet4, internal, instance=CompositePlate-1
    12,    13,    16,   382,   383,   384,   385,   386,   387,   388,   389,   390,   391,   392,   393,   394
   395,   396,   397,   398,   399,   400,   401,   503,   504,   505,   506,   507,   508,   509,   510,   511
   512,   513,   514,   515,   516,   517,   518,   519,   520,   521,   522, 10605, 10625, 11523, 12014, 12086
 12127, 12129, 12132, 12133, 12134, 12138, 12143, 12147, 12148, 12152, 12156, 12160, 12169, 12173, 12258, 12274
 14373, 14375, 14997, 15001, 15124, 15409, 15425, 15481, 15484, 15566, 15642, 15675, 15729, 15787, 15806, 15807
 15814, 15818, 15827, 15871, 15873
*Elset, elset=_PickedSet4, internal, instance=CompositePlate-1
 4238, 4246, 4794, 5137, 5181, 5204, 5205, 5207, 5208, 5209, 5211, 5213, 5216, 5217, 5219, 5221
 5223, 5227, 5229, 5296, 5307, 6729, 6730, 7109, 7112, 7199, 7402, 7412, 7455, 7460, 7512, 7565
 7591, 7629, 7665, 7676, 7677, 7680, 7682, 7687, 7711, 7713
*Nset, nset=_PickedSet5, internal, instance=CompositePlate-1
    14,    15,    16,   463,   464,   465,   466,   467,   468,   469,   470,   471,   472,   473,   474,   475
   476,   477,   478,   479,   480,   481,   482,   483,   484,   485,   486,   487,   488,   489,   490,   491
   492,   493,   494,   495,   496,   497,   498,   499,   500,   501,   502, 12661, 12663, 12717, 13514, 14033
 14034, 14121, 14124, 14176, 14177, 14186, 14189, 14192, 14193, 14196, 14199, 14205, 14207, 14214, 14222, 14238
 14326, 14372, 14425, 15221, 15549, 15626, 15671, 15723, 15751, 15764, 15773, 15831, 15834, 15838, 15846, 15850
 15851, 15856, 15862, 15866, 15938
*Elset, elset=_PickedSet5, internal, instance=CompositePlate-1
 5570, 5571, 5590, 6119, 6484, 6485, 6545, 6547, 6582, 6583, 6588, 6589, 6590, 6591, 6593, 6596
 6602, 6604, 6608, 6614, 6622, 6712, 6729, 6748, 7265, 7501, 7554, 7589, 7625, 7642, 7649, 7655
 7689, 7690, 7692, 7696, 7698, 7699, 7702, 7706, 7708, 7763
*Nset, nset=_PickedSet6, internal, instance=CompositePlate-1
    10,    11,    15,   346,   347,   348,   349,   350,   351,   352,   353,   354,   355,   356,   357,   358
   359,   360,   361,   362,   363,   364,   365,   443,   444,   445,   446,   447,   448,   449,   450,   451
   452,   453,   454,   455,   456,   457,   458,   459,   460,   461,   462,  8902,  8904,  8954,  8995,  9388
  9604,  9648,  9693,  9695,  9698,  9701,  9704,  9709,  9722,  9727,  9734,  9735,  9749,  9756,  9770,  9778
 12643, 12660, 13607, 13861, 13892, 13915, 13929, 13964, 14019, 14043, 14095, 14107, 14156, 14175, 14202, 14204
 14212, 14219, 14230, 14239, 14277
*Elset, elset=_PickedSet6, internal, instance=CompositePlate-1
 3100, 3101, 3120, 3134, 3367, 3516, 3546, 3577, 3579, 3581, 3583, 3585, 3588, 3594, 3597, 3600
 3601, 3609, 3613, 3620, 3624, 5562, 5570, 6185, 6351, 6379, 6392, 6404, 6437, 6476, 6490, 6526
 6534, 6567, 6579, 6599, 6601, 6606, 6612, 6618, 6624, 6668
*Nset, nset=_PickedSet7, internal, instance=CompositePlate-1
     9,    10,    13,   326,   327,   328,   329,   330,   331,   332,   333,   334,   335,   336,   337,   338
   339,   340,   341,   342,   343,   344,   345,   402,   403,   404,   405,   406,   407,   408,   409,   410
   411,   412,   413,   414,   415,   416,   417,   418,   419,   420,   421,   422,   423,   424,   425,  8853
  8901,  8953,  9577,  9610,  9631,  9682,  9691,  9715,  9721,  9732,  9740,  9744,  9747,  9787,  9791,  9795
  9797,  9802,  9915,  9977, 10626, 10629, 10683, 11083, 11191, 11285, 11395, 11579, 11766, 11889, 11962, 12023
 12065, 12073, 12077, 12081, 12085, 12091, 12097, 12101, 12105, 12109, 12113, 12116, 12120
*Elset, elset=_PickedSet7, internal, instance=CompositePlate-1
 3083, 3100, 3119, 3500, 3520, 3533, 3569, 3576, 3590, 3593, 3599, 3603, 3605, 3607, 3629, 3631
 3633, 3635, 3639, 3718, 3760, 4246, 4247, 4266, 4487, 4563, 4631, 4701, 4839, 4969, 5059, 5101
 5141, 5169, 5174, 5176, 5178, 5180, 5184, 5188, 5190, 5192, 5194, 5196, 5198, 5200
*End Assembly
** 
** MATERIALS
** 
*Material, name=CFRP
*Damage Initiation, criterion=HASHIN
2800.,1700.,  60., 125.,  90.,  90.
*Damage Evolution, type=ENERGY
100., 100., 0.22, 0.72
*Damage Stabilization
0.005,0.005,0.005,0.005
*Elastic, type=LAMINA
161000.,11000.,  0.32, 5170., 5170., 5170.
*Fail Stress
2800.,1700.,  60., 125.,  90.,   0.,   0.
** ----------------------------------------------------------------
** 
** STEP: Load
** 
*Step, name=Load, nlgeom=YES, inc=1000
*Static
1e-05, 1., 1e-20, 1.
** 
** BOUNDARY CONDITIONS
** 
** Name: Bottom Type: Displacement/Rotation
*Boundary
_PickedSet4, 2, 2, -0.085
** Name: Left Type: Displacement/Rotation
*Boundary
_PickedSet5, 1, 1, -0.015
** Name: Right Type: Displacement/Rotation
*Boundary
_PickedSet7, 1, 1, 0.015
** Name: Top Type: Displacement/Rotation
*Boundary
_PickedSet6, 2, 2, 0.085
** 
** OUTPUT REQUESTS
** 
*Restart, write, frequency=0
** 
** FIELD OUTPUT: F-Output-1
** 
*Output, field
*Element Output, elset=CompositePlate-1.CFRPLayup-1, directions=YES
1, 2, 3, 4, 5, 6, 7, 8
HSNFCCRT, HSNFTCRT, HSNMCCRT, HSNMTCRT
** 
** HISTORY OUTPUT: H-Output-1
** 
*Output, history, variable=PRESELECT
*End Step
