1

   Abaqus 3DEXPERIENCE R2017x                                  Date 22-Apr-2019   Time 13:33:32
   For use by Supplied by Team-SolidSQUAD under license from Dassault Systemes or its subsidiary.

                                                                                 
                                                                                 
 STEP    1     INCREMENT     1     STEP TIME    0.00    


                        S T E P       1     S T A T I C   A N A L Y S I S


                                                                                          

     AUTOMATIC TIME CONTROL WITH -
          A SUGGESTED INITIAL TIME INCREMENT OF                1.000E-05
          AND A TOTAL TIME PERIOD OF                            1.00    
          THE MINIMUM TIME INCREMENT ALLOWED IS                1.000E-20
          THE MAXIMUM TIME INCREMENT ALLOWED IS                 1.00    

     LINEAR EQUATION SOLVER TYPE         DIRECT SPARSE

 CONVERGENCE TOLERANCE PARAMETERS FOR FORCE    
     CRITERION FOR RESIDUAL FORCE     FOR A NONLINEAR PROBLEM          5.000E-03
     CRITERION FOR DISP.    CORRECTION IN A NONLINEAR PROBLEM          1.000E-02
     INITIAL VALUE OF TIME AVERAGE FORCE                               1.000E-02
     AVERAGE FORCE     IS TIME AVERAGE FORCE    
     ALTERNATE CRIT. FOR RESIDUAL FORCE     FOR A NONLINEAR PROBLEM    2.000E-02
     CRITERION FOR ZERO FORCE     RELATIVE TO TIME AVRG. FORCE         1.000E-05
     CRITERION FOR RESIDUAL FORCE     WHEN THERE IS ZERO FLUX          1.000E-05
     CRITERION FOR DISP.    CORRECTION WHEN THERE IS ZERO FLUX         1.000E-03
     CRITERION FOR RESIDUAL FORCE     FOR A LINEAR INCREMENT           1.000E-08
     FIELD CONVERSION RATIO                                             1.00    
     CRITERION FOR ZERO FORCE     REL. TO TIME AVRG. MAX. FORCE        1.000E-05
     CRITERION FOR ZERO DISP.    RELATIVE TO CHARACTERISTIC LENGTH     1.000E-08

 CONVERGENCE TOLERANCE PARAMETERS FOR MOMENT   
     CRITERION FOR RESIDUAL MOMENT    FOR A NONLINEAR PROBLEM          5.000E-03
     CRITERION FOR ROTATION CORRECTION IN A NONLINEAR PROBLEM          1.000E-02
     INITIAL VALUE OF TIME AVERAGE MOMENT                              1.000E-02
     AVERAGE MOMENT    IS TIME AVERAGE MOMENT   
     ALTERNATE CRIT. FOR RESIDUAL MOMENT    FOR A NONLINEAR PROBLEM    2.000E-02
     CRITERION FOR ZERO MOMENT    RELATIVE TO TIME AVRG. MOMENT        1.000E-05
     CRITERION FOR RESIDUAL MOMENT    WHEN THERE IS ZERO FLUX          1.000E-05
     CRITERION FOR ROTATION CORRECTION WHEN THERE IS ZERO FLUX         1.000E-03
     CRITERION FOR RESIDUAL MOMENT    FOR A LINEAR INCREMENT           1.000E-08
     FIELD CONVERSION RATIO                                             1.00    
     CRITERION FOR ZERO MOMENT    REL. TO TIME AVRG. MAX. MOMENT       1.000E-05

     VOLUMETRIC STRAIN COMPATIBILITY TOLERANCE FOR HYBRID SOLIDS       1.000E-05
     AXIAL STRAIN COMPATIBILITY TOLERANCE FOR HYBRID BEAMS             1.000E-05
     TRANS. SHEAR STRAIN COMPATIBILITY TOLERANCE FOR HYBRID BEAMS      1.000E-05
     SOFT CONTACT CONSTRAINT COMPATIBILITY TOLERANCE FOR P>P0          5.000E-03
     SOFT CONTACT CONSTRAINT COMPATIBILITY TOLERANCE FOR P=0.0         0.100    
     CONTACT FORCE ERROR TOLERANCE FOR CONVERT SDI=YES                 1.00    
     DISPLACEMENT COMPATIBILITY TOLERANCE FOR DCOUP ELEMENTS           1.000E-05
     ROTATION COMPATIBILITY TOLERANCE FOR DCOUP ELEMENTS               1.000E-05

 EQUILIBRIUM WILL BE CHECKED FOR SEVERE DISCONTINUITY ITERATIONS

 TIME INCREMENTATION CONTROL PARAMETERS:
     FIRST EQUILIBRIUM ITERATION FOR CONSECUTIVE DIVERGENCE CHECK              4
     EQUILIBRIUM ITERATION AT WHICH LOG. CONVERGENCE RATE CHECK BEGINS         8
     EQUILIBRIUM ITERATION AFTER WHICH ALTERNATE RESIDUAL IS USED              9
     MAXIMUM EQUILIBRIUM ITERATIONS ALLOWED                                   16
     EQUILIBRIUM ITERATION COUNT FOR CUT-BACK IN NEXT INCREMENT               10
     MAXIMUM EQUILIB. ITERS IN TWO INCREMENTS FOR TIME INCREMENT INCREASE      4
     MAXIMUM ITERATIONS FOR SEVERE DISCONTINUITIES                            50
     MAXIMUM ATTEMPTS ALLOWED IN AN INCREMENT                                  5
     MAXIMUM DISCON. ITERS IN TWO INCREMENTS FOR TIME INCREMENT INCREASE      50
     MAXIMUM CONTACT AUGMENTATIONS FOR *SURFACE BEHAVIOR,AUGMENTED LAGRANGE   50
     CUT-BACK FACTOR AFTER DIVERGENCE                                 0.2500    
     CUT-BACK FACTOR FOR TOO SLOW CONVERGENCE                         0.5000    
     CUT-BACK FACTOR AFTER TOO MANY EQUILIBRIUM ITERATIONS            0.7500    
     CUT-BACK FACTOR AFTER TOO MANY SEVERE DISCONTINUITY ITERATIONS   0.2500    
     CUT-BACK FACTOR AFTER PROBLEMS IN ELEMENT ASSEMBLY               0.2500    
     INCREASE FACTOR AFTER TWO INCREMENTS THAT CONVERGE QUICKLY        1.500    
     MAX. TIME INCREMENT INCREASE FACTOR ALLOWED                       1.500    
     MAX. TIME INCREMENT INCREASE FACTOR ALLOWED (DYNAMICS)            1.250    
     MAX. TIME INCREMENT INCREASE FACTOR ALLOWED (DIFFUSION)           2.000    
     MINIMUM TIME INCREMENT RATIO FOR EXTRAPOLATION TO OCCUR          0.1000    
     MAX. RATIO OF TIME INCREMENT TO STABILITY LIMIT                   1.000    
     FRACTION OF STABILITY LIMIT FOR NEW TIME INCREMENT               0.9500    
     TIME INCREMENT INCREASE FACTOR BEFORE A TIME POINT                1.000    
     GLOBAL STABILIZATION CONTROL IS NOT USED

          PRINT OF INCREMENT NUMBER, TIME, ETC., EVERY    1  INCREMENTS

     THE MAXIMUM NUMBER OF INCREMENTS IN THIS STEP IS                    1000

          LARGE DISPLACEMENT THEORY WILL BE USED

          UNSYMMETRIC MATRIX STORAGE AND SOLUTION WILL BE USED

     LINEAR EXTRAPOLATION WILL BE USED

     CHARACTERISTIC ELEMENT LENGTH     0.163    

     DETAILS REGARDING ACTUAL SOLUTION WAVEFRONT REQUESTED

     DETAILED OUTPUT OF DIAGNOSTICS TO DATABASE REQUESTED

     PRINT OF INCREMENT NUMBER, TIME, ETC., TO THE MESSAGE FILE EVERY     1  INCREMENTS

     COLLECTING MODEL CONSTRAINT INFORMATION FOR OVERCONSTRAINT CHECKS

     COLLECTING STEP CONSTRAINT INFORMATION FOR OVERCONSTRAINT CHECKS


  INCREMENT     1 STARTS. ATTEMPT NUMBER  1, TIME INCREMENT  1.000E-05

  NUMBER OF EQUATIONS =     80220     NUMBER OF FLOATING PT. OPERATIONS =  7.65E+09

     CHECK POINT   START OF SOLVER    

     CHECK POINT  END OF SOLVER       

       ELAPSED USER TIME (SEC)      =  0.90000    
       ELAPSED SYSTEM TIME (SEC)    =  0.10000    
       ELAPSED TOTAL CPU TIME (SEC) =   1.0000    
       ELAPSED WALLCLOCK TIME (SEC) =          1
 

 ***WARNING: SOLVER PROBLEM. NUMERICAL SINGULARITY WHEN PROCESSING NODE 
             COMPOSITEPLATE-1.4 D.O.F. 3 RATIO = 49.6497E+12 .
 

 ***WARNING: SOLVER PROBLEM. NUMERICAL SINGULARITY WHEN PROCESSING NODE 
             COMPOSITEPLATE-1.4 D.O.F. 4 RATIO = 1.51161E+12.
 

 ***WARNING: SOLVER PROBLEM. NUMERICAL SINGULARITY WHEN PROCESSING NODE 
             COMPOSITEPLATE-1.4 D.O.F. 5 RATIO = 5.32393E+12.

               CONVERGENCE CHECKS FOR EQUILIBRIUM ITERATION     1


 AVERAGE FORCE                      1.524E-04   TIME AVG. FORCE       1.524E-04
 LARGEST RESIDUAL FORCE            -3.433E-10   AT NODE       9101   DOF  2
   INSTANCE: COMPOSITEPLATE-1                                                                
 LARGEST INCREMENT OF DISP.         5.500E-07   AT NODE         10   DOF  2
   INSTANCE: COMPOSITEPLATE-1                                                                
 LARGEST CORRECTION TO DISP.        5.500E-07   AT NODE         10   DOF  2
   INSTANCE: COMPOSITEPLATE-1                                                                
          DISP.    CORRECTION TOO LARGE COMPARED TO DISP.    INCREMENT

 AVERAGE MOMENT                     2.976E-21   TIME AVG. MOMENT      1.000E-02
 LARGEST RESIDUAL MOMENT            5.019E-20   AT NODE       9916   DOF  4
   INSTANCE: COMPOSITEPLATE-1                                                                
 LARGEST INCREMENT OF ROTATION     -8.610E-23   AT NODE         10   DOF  5
   INSTANCE: COMPOSITEPLATE-1                                                                
 LARGEST CORRECTION TO ROTATION    -8.610E-23   AT NODE         10   DOF  5
   INSTANCE: COMPOSITEPLATE-1                                                                
          THERE IS ZERO MOMENT    EVERYWHERE
 

 ***WARNING: THERE IS ZERO MOMENT EVERYWHERE IN THE MODEL BASED ON THE DEFAULT 
             CRITERION. PLEASE CHECK THE VALUE OF THE AVERAGE MOMENT DURING THE 
             CURRENT ITERATION TO VERIFY THAT THE MOMENT IS SMALL ENOUGH TO BE 
             TREATED AS ZERO. IF NOT, PLEASE USE THE SOLUTION CONTROLS TO RESET 
             THE CRITERION FOR ZERO MOMENT.

  NUMBER OF EQUATIONS =     80220     NUMBER OF FLOATING PT. OPERATIONS =  7.65E+09

     CHECK POINT   START OF SOLVER    

     CHECK POINT  END OF SOLVER       

       ELAPSED USER TIME (SEC)      =  0.80000    
       ELAPSED SYSTEM TIME (SEC)    =   0.0000    
       ELAPSED TOTAL CPU TIME (SEC) =  0.80000    
       ELAPSED WALLCLOCK TIME (SEC) =          1
 

 ***WARNING: SOLVER PROBLEM. NUMERICAL SINGULARITY WHEN PROCESSING NODE 
             COMPOSITEPLATE-1.4 D.O.F. 3 RATIO = 109.396E+12  .

               CONVERGENCE CHECKS FOR EQUILIBRIUM ITERATION     2


 AVERAGE FORCE                      1.524E-04   TIME AVG. FORCE       1.524E-04
 LARGEST RESIDUAL FORCE             4.511E-10   AT NODE      14331   DOF  1
   INSTANCE: COMPOSITEPLATE-1                                                                
 LARGEST INCREMENT OF DISP.         5.500E-07   AT NODE         10   DOF  2
   INSTANCE: COMPOSITEPLATE-1                                                                
 LARGEST CORRECTION TO DISP.       -1.795E-14   AT NODE        798   DOF  2
   INSTANCE: COMPOSITEPLATE-1                                                                
          THE FORCE     EQUILIBRIUM EQUATIONS HAVE CONVERGED

 AVERAGE MOMENT                     4.178E-21   TIME AVG. MOMENT      1.000E-02
 LARGEST RESIDUAL MOMENT           -8.688E-20   AT NODE       9916   DOF  4
   INSTANCE: COMPOSITEPLATE-1                                                                
 LARGEST INCREMENT OF ROTATION      5.637E-23   AT NODE      15807   DOF  4
   INSTANCE: COMPOSITEPLATE-1                                                                
 LARGEST CORRECTION TO ROTATION     9.002E-23   AT NODE       9915   DOF  5
   INSTANCE: COMPOSITEPLATE-1                                                                
          THERE IS ZERO MOMENT    EVERYWHERE
 

 ***WARNING: THERE IS ZERO MOMENT EVERYWHERE IN THE MODEL BASED ON THE DEFAULT 
             CRITERION. PLEASE CHECK THE VALUE OF THE AVERAGE MOMENT DURING THE 
             CURRENT ITERATION TO VERIFY THAT THE MOMENT IS SMALL ENOUGH TO BE 
             TREATED AS ZERO. IF NOT, PLEASE USE THE SOLUTION CONTROLS TO RESET 
             THE CRITERION FOR ZERO MOMENT.

 ITERATION SUMMARY FOR THE INCREMENT:   2 TOTAL ITERATIONS, OF WHICH
   0 ARE SEVERE DISCONTINUITY ITERATIONS AND  2 ARE EQUILIBRIUM ITERATIONS.

 TIME INCREMENT COMPLETED  1.000E-05,  FRACTION OF STEP COMPLETED  1.000E-05
 STEP TIME COMPLETED       1.000E-05,  TOTAL TIME COMPLETED        1.000E-05


  INCREMENT     2 STARTS. ATTEMPT NUMBER  1, TIME INCREMENT  1.000E-05

  NUMBER OF EQUATIONS =     80220     NUMBER OF FLOATING PT. OPERATIONS =  7.65E+09

     CHECK POINT   START OF SOLVER    

     CHECK POINT  END OF SOLVER       

       ELAPSED USER TIME (SEC)      =  0.90000    
       ELAPSED SYSTEM TIME (SEC)    =   0.0000    
       ELAPSED TOTAL CPU TIME (SEC) =  0.90000    
       ELAPSED WALLCLOCK TIME (SEC) =          1
 

 ***WARNING: SOLVER PROBLEM. NUMERICAL SINGULARITY WHEN PROCESSING NODE 
             COMPOSITEPLATE-1.4 D.O.F. 3 RATIO = 20.7355E+12 .

               CONVERGENCE CHECKS FOR EQUILIBRIUM ITERATION     1


 AVERAGE FORCE                      4.603E-04   TIME AVG. FORCE       3.064E-04
 LARGEST RESIDUAL FORCE            -3.841E-10   AT NODE      15550   DOF  1
   INSTANCE: COMPOSITEPLATE-1                                                                
 LARGEST INCREMENT OF DISP.         5.500E-07   AT NODE         10   DOF  2
   INSTANCE: COMPOSITEPLATE-1                                                                
 LARGEST CORRECTION TO DISP.        3.613E-14   AT NODE        171   DOF  2
   INSTANCE: COMPOSITEPLATE-1                                                                
          THE FORCE     EQUILIBRIUM EQUATIONS HAVE CONVERGED

 AVERAGE MOMENT                     8.919E-21   TIME AVG. MOMENT      1.000E-02
 LARGEST RESIDUAL MOMENT           -1.852E-19   AT NODE       9951   DOF  4
   INSTANCE: COMPOSITEPLATE-1                                                                
 LARGEST INCREMENT OF ROTATION     -3.792E-23   AT NODE        452   DOF  5
   INSTANCE: COMPOSITEPLATE-1                                                                
 LARGEST CORRECTION TO ROTATION     7.880E-23   AT NODE       8904   DOF  4
   INSTANCE: COMPOSITEPLATE-1                                                                
          THERE IS ZERO MOMENT    EVERYWHERE
 

 ***WARNING: THERE IS ZERO MOMENT EVERYWHERE IN THE MODEL BASED ON THE DEFAULT 
             CRITERION. PLEASE CHECK THE VALUE OF THE AVERAGE MOMENT DURING THE 
             CURRENT ITERATION TO VERIFY THAT THE MOMENT IS SMALL ENOUGH TO BE 
             TREATED AS ZERO. IF NOT, PLEASE USE THE SOLUTION CONTROLS TO RESET 
             THE CRITERION FOR ZERO MOMENT.
          TIME INCREMENT MAY NOW INCREASE TO    1.500E-05

 ITERATION SUMMARY FOR THE INCREMENT:   1 TOTAL ITERATIONS, OF WHICH
   0 ARE SEVERE DISCONTINUITY ITERATIONS AND  1 ARE EQUILIBRIUM ITERATIONS.

 TIME INCREMENT COMPLETED  1.000E-05,  FRACTION OF STEP COMPLETED  2.000E-05
 STEP TIME COMPLETED       2.000E-05,  TOTAL TIME COMPLETED        2.000E-05


  INCREMENT     3 STARTS. ATTEMPT NUMBER  1, TIME INCREMENT  1.500E-05

  NUMBER OF EQUATIONS =     80220     NUMBER OF FLOATING PT. OPERATIONS =  7.65E+09

     CHECK POINT   START OF SOLVER    

     CHECK POINT  END OF SOLVER       

       ELAPSED USER TIME (SEC)      =  0.90000    
       ELAPSED SYSTEM TIME (SEC)    =   0.0000    
       ELAPSED TOTAL CPU TIME (SEC) =  0.90000    
       ELAPSED WALLCLOCK TIME (SEC) =          1
 

 ***WARNING: SOLVER PROBLEM. NUMERICAL SINGULARITY WHEN PROCESSING NODE 
             COMPOSITEPLATE-1.4 D.O.F. 3 RATIO = 105.632E+12  .

               CONVERGENCE CHECKS FOR EQUILIBRIUM ITERATION     1


 AVERAGE FORCE                      8.056E-04   TIME AVG. FORCE       4.728E-04
 LARGEST RESIDUAL FORCE            -3.718E-10   AT NODE      14851   DOF  1
   INSTANCE: COMPOSITEPLATE-1                                                                
 LARGEST INCREMENT OF DISP.         8.250E-07   AT NODE         10   DOF  2
   INSTANCE: COMPOSITEPLATE-1                                                                
 LARGEST CORRECTION TO DISP.        6.665E-14   AT NODE       5372   DOF  2
   INSTANCE: COMPOSITEPLATE-1                                                                
          THE FORCE     EQUILIBRIUM EQUATIONS HAVE CONVERGED

 AVERAGE MOMENT                     1.636E-20   TIME AVG. MOMENT      1.000E-02
 LARGEST RESIDUAL MOMENT           -3.264E-19   AT NODE      10699   DOF  4
   INSTANCE: COMPOSITEPLATE-1                                                                
 LARGEST INCREMENT OF ROTATION     -5.449E-23   AT NODE        401   DOF  4
   INSTANCE: COMPOSITEPLATE-1                                                                
 LARGEST CORRECTION TO ROTATION     8.697E-23   AT NODE      12660   DOF  5
   INSTANCE: COMPOSITEPLATE-1                                                                
          THERE IS ZERO MOMENT    EVERYWHERE
 

 ***WARNING: THERE IS ZERO MOMENT EVERYWHERE IN THE MODEL BASED ON THE DEFAULT 
             CRITERION. PLEASE CHECK THE VALUE OF THE AVERAGE MOMENT DURING THE 
             CURRENT ITERATION TO VERIFY THAT THE MOMENT IS SMALL ENOUGH TO BE 
             TREATED AS ZERO. IF NOT, PLEASE USE THE SOLUTION CONTROLS TO RESET 
             THE CRITERION FOR ZERO MOMENT.
          TIME INCREMENT MAY NOW INCREASE TO    2.250E-05

 ITERATION SUMMARY FOR THE INCREMENT:   1 TOTAL ITERATIONS, OF WHICH
   0 ARE SEVERE DISCONTINUITY ITERATIONS AND  1 ARE EQUILIBRIUM ITERATIONS.

 TIME INCREMENT COMPLETED  1.500E-05,  FRACTION OF STEP COMPLETED  3.500E-05
 STEP TIME COMPLETED       3.500E-05,  TOTAL TIME COMPLETED        3.500E-05


  INCREMENT     4 STARTS. ATTEMPT NUMBER  1, TIME INCREMENT  2.250E-05

  NUMBER OF EQUATIONS =     80220     NUMBER OF FLOATING PT. OPERATIONS =  7.65E+09

     CHECK POINT   START OF SOLVER    

     CHECK POINT  END OF SOLVER       

       ELAPSED USER TIME (SEC)      =  0.90000    
       ELAPSED SYSTEM TIME (SEC)    =  0.10000    
       ELAPSED TOTAL CPU TIME (SEC) =   1.0000    
       ELAPSED WALLCLOCK TIME (SEC) =          0
 

 ***WARNING: SOLVER PROBLEM. NUMERICAL SINGULARITY WHEN PROCESSING NODE 
             COMPOSITEPLATE-1.4 D.O.F. 3 RATIO = 29.6097E+12 .

               CONVERGENCE CHECKS FOR EQUILIBRIUM ITERATION     1


 AVERAGE FORCE                      1.323E-03   TIME AVG. FORCE       6.854E-04
 LARGEST RESIDUAL FORCE             4.278E-10   AT NODE      10857   DOF  2
   INSTANCE: COMPOSITEPLATE-1                                                                
 LARGEST INCREMENT OF DISP.         1.238E-06   AT NODE         10   DOF  2
   INSTANCE: COMPOSITEPLATE-1                                                                
 LARGEST CORRECTION TO DISP.       -1.502E-13   AT NODE       5210   DOF  2
   INSTANCE: COMPOSITEPLATE-1                                                                
          THE FORCE     EQUILIBRIUM EQUATIONS HAVE CONVERGED

 AVERAGE MOMENT                     2.613E-20   TIME AVG. MOMENT      1.000E-02
 LARGEST RESIDUAL MOMENT            4.736E-19   AT NODE      11949   DOF  4
   INSTANCE: COMPOSITEPLATE-1                                                                
 LARGEST INCREMENT OF ROTATION     -9.550E-23   AT NODE        401   DOF  5
   INSTANCE: COMPOSITEPLATE-1                                                                
 LARGEST CORRECTION TO ROTATION    -1.367E-22   AT NODE      10627   DOF  5
   INSTANCE: COMPOSITEPLATE-1                                                                
          THERE IS ZERO MOMENT    EVERYWHERE
 

 ***WARNING: THERE IS ZERO MOMENT EVERYWHERE IN THE MODEL BASED ON THE DEFAULT 
             CRITERION. PLEASE CHECK THE VALUE OF THE AVERAGE MOMENT DURING THE 
             CURRENT ITERATION TO VERIFY THAT THE MOMENT IS SMALL ENOUGH TO BE 
             TREATED AS ZERO. IF NOT, PLEASE USE THE SOLUTION CONTROLS TO RESET 
             THE CRITERION FOR ZERO MOMENT.
          TIME INCREMENT MAY NOW INCREASE TO    3.375E-05

 ITERATION SUMMARY FOR THE INCREMENT:   1 TOTAL ITERATIONS, OF WHICH
   0 ARE SEVERE DISCONTINUITY ITERATIONS AND  1 ARE EQUILIBRIUM ITERATIONS.

 TIME INCREMENT COMPLETED  2.250E-05,  FRACTION OF STEP COMPLETED  5.750E-05
 STEP TIME COMPLETED       5.750E-05,  TOTAL TIME COMPLETED        5.750E-05


  INCREMENT     5 STARTS. ATTEMPT NUMBER  1, TIME INCREMENT  3.375E-05

  NUMBER OF EQUATIONS =     80220     NUMBER OF FLOATING PT. OPERATIONS =  7.65E+09

     CHECK POINT   START OF SOLVER    

     CHECK POINT  END OF SOLVER       

       ELAPSED USER TIME (SEC)      =  0.80000    
       ELAPSED SYSTEM TIME (SEC)    =   0.0000    
       ELAPSED TOTAL CPU TIME (SEC) =  0.80000    
       ELAPSED WALLCLOCK TIME (SEC) =          1
 

 ***WARNING: SOLVER PROBLEM. NUMERICAL SINGULARITY WHEN PROCESSING NODE 
             COMPOSITEPLATE-1.4 D.O.F. 3 RATIO = 64.5643E+12 .

               CONVERGENCE CHECKS FOR EQUILIBRIUM ITERATION     1


 AVERAGE FORCE                      2.100E-03   TIME AVG. FORCE       9.684E-04
 LARGEST RESIDUAL FORCE             3.830E-10   AT NODE      10863   DOF  2
   INSTANCE: COMPOSITEPLATE-1                                                                
 LARGEST INCREMENT OF DISP.         1.856E-06   AT NODE         10   DOF  2
   INSTANCE: COMPOSITEPLATE-1                                                                
 LARGEST CORRECTION TO DISP.        3.339E-13   AT NODE        248   DOF  2
   INSTANCE: COMPOSITEPLATE-1                                                                
          THE FORCE     EQUILIBRIUM EQUATIONS HAVE CONVERGED

 AVERAGE MOMENT                     4.455E-20   TIME AVG. MOMENT      1.000E-02
 LARGEST RESIDUAL MOMENT            8.845E-19   AT NODE      15784   DOF  4
   INSTANCE: COMPOSITEPLATE-1                                                                
 LARGEST INCREMENT OF ROTATION     -1.488E-22   AT NODE        333   DOF  5
   INSTANCE: COMPOSITEPLATE-1                                                                
 LARGEST CORRECTION TO ROTATION     2.322E-22   AT NODE        401   DOF  5
   INSTANCE: COMPOSITEPLATE-1                                                                
          THERE IS ZERO MOMENT    EVERYWHERE
 

 ***WARNING: THERE IS ZERO MOMENT EVERYWHERE IN THE MODEL BASED ON THE DEFAULT 
             CRITERION. PLEASE CHECK THE VALUE OF THE AVERAGE MOMENT DURING THE 
             CURRENT ITERATION TO VERIFY THAT THE MOMENT IS SMALL ENOUGH TO BE 
             TREATED AS ZERO. IF NOT, PLEASE USE THE SOLUTION CONTROLS TO RESET 
             THE CRITERION FOR ZERO MOMENT.
          TIME INCREMENT MAY NOW INCREASE TO    5.063E-05

 ITERATION SUMMARY FOR THE INCREMENT:   1 TOTAL ITERATIONS, OF WHICH
   0 ARE SEVERE DISCONTINUITY ITERATIONS AND  1 ARE EQUILIBRIUM ITERATIONS.

 TIME INCREMENT COMPLETED  3.375E-05,  FRACTION OF STEP COMPLETED  9.125E-05
 STEP TIME COMPLETED       9.125E-05,  TOTAL TIME COMPLETED        9.125E-05


  INCREMENT     6 STARTS. ATTEMPT NUMBER  1, TIME INCREMENT  5.063E-05

  NUMBER OF EQUATIONS =     80220     NUMBER OF FLOATING PT. OPERATIONS =  7.65E+09

     CHECK POINT   START OF SOLVER    

     CHECK POINT  END OF SOLVER       

       ELAPSED USER TIME (SEC)      =  0.80000    
       ELAPSED SYSTEM TIME (SEC)    =   0.0000    
       ELAPSED TOTAL CPU TIME (SEC) =  0.80000    
       ELAPSED WALLCLOCK TIME (SEC) =          1
 

 ***WARNING: SOLVER PROBLEM. NUMERICAL SINGULARITY WHEN PROCESSING NODE 
             COMPOSITEPLATE-1.4 D.O.F. 3 RATIO = 34.7781E+12 .

               CONVERGENCE CHECKS FOR EQUILIBRIUM ITERATION     1


 AVERAGE FORCE                      3.265E-03   TIME AVG. FORCE       1.351E-03
 LARGEST RESIDUAL FORCE             5.099E-10   AT NODE       8955   DOF  2
   INSTANCE: COMPOSITEPLATE-1                                                                
 LARGEST INCREMENT OF DISP.         2.784E-06   AT NODE         10   DOF  2
   INSTANCE: COMPOSITEPLATE-1                                                                
 LARGEST CORRECTION TO DISP.       -7.512E-13   AT NODE       7650   DOF  2
   INSTANCE: COMPOSITEPLATE-1                                                                
          THE FORCE     EQUILIBRIUM EQUATIONS HAVE CONVERGED

 AVERAGE MOMENT                     6.822E-20   TIME AVG. MOMENT      1.000E-02
 LARGEST RESIDUAL MOMENT           -1.486E-18   AT NODE      15778   DOF  4
   INSTANCE: COMPOSITEPLATE-1                                                                
 LARGEST INCREMENT OF ROTATION     -3.042E-22   AT NODE         13   DOF  4
   INSTANCE: COMPOSITEPLATE-1                                                                
 LARGEST CORRECTION TO ROTATION     4.095E-22   AT NODE        333   DOF  5
   INSTANCE: COMPOSITEPLATE-1                                                                
          THERE IS ZERO MOMENT    EVERYWHERE
 

 ***WARNING: THERE IS ZERO MOMENT EVERYWHERE IN THE MODEL BASED ON THE DEFAULT 
             CRITERION. PLEASE CHECK THE VALUE OF THE AVERAGE MOMENT DURING THE 
             CURRENT ITERATION TO VERIFY THAT THE MOMENT IS SMALL ENOUGH TO BE 
             TREATED AS ZERO. IF NOT, PLEASE USE THE SOLUTION CONTROLS TO RESET 
             THE CRITERION FOR ZERO MOMENT.
          TIME INCREMENT MAY NOW INCREASE TO    7.594E-05

 ITERATION SUMMARY FOR THE INCREMENT:   1 TOTAL ITERATIONS, OF WHICH
   0 ARE SEVERE DISCONTINUITY ITERATIONS AND  1 ARE EQUILIBRIUM ITERATIONS.

 TIME INCREMENT COMPLETED  5.063E-05,  FRACTION OF STEP COMPLETED  1.419E-04
 STEP TIME COMPLETED       1.419E-04,  TOTAL TIME COMPLETED        1.419E-04


  INCREMENT     7 STARTS. ATTEMPT NUMBER  1, TIME INCREMENT  7.594E-05

  NUMBER OF EQUATIONS =     80220     NUMBER OF FLOATING PT. OPERATIONS =  7.65E+09

     CHECK POINT   START OF SOLVER    

     CHECK POINT  END OF SOLVER       

       ELAPSED USER TIME (SEC)      =  0.70000    
       ELAPSED SYSTEM TIME (SEC)    =   0.0000    
       ELAPSED TOTAL CPU TIME (SEC) =  0.70000    
       ELAPSED WALLCLOCK TIME (SEC) =          1
 

 ***WARNING: SOLVER PROBLEM. NUMERICAL SINGULARITY WHEN PROCESSING NODE 
             COMPOSITEPLATE-1.4 D.O.F. 3 RATIO = 11.2695E+12 .

               CONVERGENCE CHECKS FOR EQUILIBRIUM ITERATION     1


 AVERAGE FORCE                      5.013E-03   TIME AVG. FORCE       1.874E-03
 LARGEST RESIDUAL FORCE            -4.740E-10   AT NODE      12123   DOF  1
   INSTANCE: COMPOSITEPLATE-1                                                                
 LARGEST INCREMENT OF DISP.         4.177E-06   AT NODE         10   DOF  2
   INSTANCE: COMPOSITEPLATE-1                                                                
 LARGEST CORRECTION TO DISP.        1.691E-12   AT NODE       7685   DOF  2
   INSTANCE: COMPOSITEPLATE-1                                                                
          THE FORCE     EQUILIBRIUM EQUATIONS HAVE CONVERGED

 AVERAGE MOMENT                     1.023E-19   TIME AVG. MOMENT      1.000E-02
 LARGEST RESIDUAL MOMENT           -2.050E-18   AT NODE      10776   DOF  4
   INSTANCE: COMPOSITEPLATE-1                                                                
 LARGEST INCREMENT OF ROTATION      3.099E-22   AT NODE         13   DOF  4
   INSTANCE: COMPOSITEPLATE-1                                                                
 LARGEST CORRECTION TO ROTATION     7.661E-22   AT NODE         13   DOF  4
   INSTANCE: COMPOSITEPLATE-1                                                                
          THERE IS ZERO MOMENT    EVERYWHERE
 

 ***WARNING: THERE IS ZERO MOMENT EVERYWHERE IN THE MODEL BASED ON THE DEFAULT 
             CRITERION. PLEASE CHECK THE VALUE OF THE AVERAGE MOMENT DURING THE 
             CURRENT ITERATION TO VERIFY THAT THE MOMENT IS SMALL ENOUGH TO BE 
             TREATED AS ZERO. IF NOT, PLEASE USE THE SOLUTION CONTROLS TO RESET 
             THE CRITERION FOR ZERO MOMENT.
          TIME INCREMENT MAY NOW INCREASE TO    1.139E-04

 ITERATION SUMMARY FOR THE INCREMENT:   1 TOTAL ITERATIONS, OF WHICH
   0 ARE SEVERE DISCONTINUITY ITERATIONS AND  1 ARE EQUILIBRIUM ITERATIONS.

 TIME INCREMENT COMPLETED  7.594E-05,  FRACTION OF STEP COMPLETED  2.178E-04
 STEP TIME COMPLETED       2.178E-04,  TOTAL TIME COMPLETED        2.178E-04


  INCREMENT     8 STARTS. ATTEMPT NUMBER  1, TIME INCREMENT  1.139E-04

  NUMBER OF EQUATIONS =     80220     NUMBER OF FLOATING PT. OPERATIONS =  7.65E+09

     CHECK POINT   START OF SOLVER    

     CHECK POINT  END OF SOLVER       

       ELAPSED USER TIME (SEC)      =  0.70000    
       ELAPSED SYSTEM TIME (SEC)    =  0.10000    
       ELAPSED TOTAL CPU TIME (SEC) =  0.80000    
       ELAPSED WALLCLOCK TIME (SEC) =          0
 

 ***WARNING: SOLVER PROBLEM. NUMERICAL SINGULARITY WHEN PROCESSING NODE 
             COMPOSITEPLATE-1.4 D.O.F. 3 RATIO = 28.5000E+12 .

               CONVERGENCE CHECKS FOR EQUILIBRIUM ITERATION     1


 AVERAGE FORCE                      7.634E-03   TIME AVG. FORCE       2.594E-03
 LARGEST RESIDUAL FORCE             3.656E-10   AT NODE       3620   DOF  1
   INSTANCE: COMPOSITEPLATE-1                                                                
 LARGEST INCREMENT OF DISP.         6.265E-06   AT NODE         10   DOF  2
   INSTANCE: COMPOSITEPLATE-1                                                                
 LARGEST CORRECTION TO DISP.       -3.801E-12   AT NODE       7650   DOF  2
   INSTANCE: COMPOSITEPLATE-1                                                                
          THE FORCE     EQUILIBRIUM EQUATIONS HAVE CONVERGED

 AVERAGE MOMENT                     1.681E-19   TIME AVG. MOMENT      1.000E-02
 LARGEST RESIDUAL MOMENT            3.650E-18   AT NODE       9396   DOF  4
   INSTANCE: COMPOSITEPLATE-1                                                                
 LARGEST INCREMENT OF ROTATION     -7.036E-22   AT NODE         13   DOF  5
   INSTANCE: COMPOSITEPLATE-1                                                                
 LARGEST CORRECTION TO ROTATION    -7.654E-22   AT NODE         13   DOF  5
   INSTANCE: COMPOSITEPLATE-1                                                                
          THERE IS ZERO MOMENT    EVERYWHERE
 

 ***WARNING: THERE IS ZERO MOMENT EVERYWHERE IN THE MODEL BASED ON THE DEFAULT 
             CRITERION. PLEASE CHECK THE VALUE OF THE AVERAGE MOMENT DURING THE 
             CURRENT ITERATION TO VERIFY THAT THE MOMENT IS SMALL ENOUGH TO BE 
             TREATED AS ZERO. IF NOT, PLEASE USE THE SOLUTION CONTROLS TO RESET 
             THE CRITERION FOR ZERO MOMENT.
          TIME INCREMENT MAY NOW INCREASE TO    1.709E-04

 ITERATION SUMMARY FOR THE INCREMENT:   1 TOTAL ITERATIONS, OF WHICH
   0 ARE SEVERE DISCONTINUITY ITERATIONS AND  1 ARE EQUILIBRIUM ITERATIONS.

 TIME INCREMENT COMPLETED  1.139E-04,  FRACTION OF STEP COMPLETED  3.317E-04
 STEP TIME COMPLETED       3.317E-04,  TOTAL TIME COMPLETED        3.317E-04


  INCREMENT     9 STARTS. ATTEMPT NUMBER  1, TIME INCREMENT  1.709E-04

  NUMBER OF EQUATIONS =     80220     NUMBER OF FLOATING PT. OPERATIONS =  7.65E+09

     CHECK POINT   START OF SOLVER    

     CHECK POINT  END OF SOLVER       

       ELAPSED USER TIME (SEC)      =  0.70000    
       ELAPSED SYSTEM TIME (SEC)    =   0.0000    
       ELAPSED TOTAL CPU TIME (SEC) =  0.70000    
       ELAPSED WALLCLOCK TIME (SEC) =          0
 

 ***WARNING: SOLVER PROBLEM. NUMERICAL SINGULARITY WHEN PROCESSING NODE 
             COMPOSITEPLATE-1.4 D.O.F. 3 RATIO = 19.0856E+12 .

               CONVERGENCE CHECKS FOR EQUILIBRIUM ITERATION     1


 AVERAGE FORCE                      1.157E-02   TIME AVG. FORCE       3.591E-03
 LARGEST RESIDUAL FORCE            -3.738E-10   AT NODE      15879   DOF  1
   INSTANCE: COMPOSITEPLATE-1                                                                
 LARGEST INCREMENT OF DISP.         9.397E-06   AT NODE         10   DOF  2
   INSTANCE: COMPOSITEPLATE-1                                                                
 LARGEST CORRECTION TO DISP.        8.555E-12   AT NODE       7685   DOF  2
   INSTANCE: COMPOSITEPLATE-1                                                                
          THE FORCE     EQUILIBRIUM EQUATIONS HAVE CONVERGED

 AVERAGE MOMENT                     2.306E-19   TIME AVG. MOMENT      1.000E-02
 LARGEST RESIDUAL MOMENT           -4.090E-18   AT NODE      12111   DOF  4
   INSTANCE: COMPOSITEPLATE-1                                                                
 LARGEST INCREMENT OF ROTATION     -8.796E-22   AT NODE         15   DOF  5
   INSTANCE: COMPOSITEPLATE-1                                                                
 LARGEST CORRECTION TO ROTATION     1.465E-21   AT NODE         13   DOF  5
   INSTANCE: COMPOSITEPLATE-1                                                                
          THERE IS ZERO MOMENT    EVERYWHERE
 

 ***WARNING: THERE IS ZERO MOMENT EVERYWHERE IN THE MODEL BASED ON THE DEFAULT 
             CRITERION. PLEASE CHECK THE VALUE OF THE AVERAGE MOMENT DURING THE 
             CURRENT ITERATION TO VERIFY THAT THE MOMENT IS SMALL ENOUGH TO BE 
             TREATED AS ZERO. IF NOT, PLEASE USE THE SOLUTION CONTROLS TO RESET 
             THE CRITERION FOR ZERO MOMENT.
          TIME INCREMENT MAY NOW INCREASE TO    2.563E-04

 ITERATION SUMMARY FOR THE INCREMENT:   1 TOTAL ITERATIONS, OF WHICH
   0 ARE SEVERE DISCONTINUITY ITERATIONS AND  1 ARE EQUILIBRIUM ITERATIONS.

 TIME INCREMENT COMPLETED  1.709E-04,  FRACTION OF STEP COMPLETED  5.026E-04
 STEP TIME COMPLETED       5.026E-04,  TOTAL TIME COMPLETED        5.026E-04


  INCREMENT    10 STARTS. ATTEMPT NUMBER  1, TIME INCREMENT  2.563E-04

  NUMBER OF EQUATIONS =     80220     NUMBER OF FLOATING PT. OPERATIONS =  7.65E+09

     CHECK POINT   START OF SOLVER    

     CHECK POINT  END OF SOLVER       

       ELAPSED USER TIME (SEC)      =  0.80000    
       ELAPSED SYSTEM TIME (SEC)    =   0.0000    
       ELAPSED TOTAL CPU TIME (SEC) =  0.80000    
       ELAPSED WALLCLOCK TIME (SEC) =          1
 

 ***WARNING: SOLVER PROBLEM. NUMERICAL SINGULARITY WHEN PROCESSING NODE 
             COMPOSITEPLATE-1.4 D.O.F. 3 RATIO = 52.8136E+12 .

               CONVERGENCE CHECKS FOR EQUILIBRIUM ITERATION     1


 AVERAGE FORCE                      1.746E-02   TIME AVG. FORCE       4.978E-03
 LARGEST RESIDUAL FORCE             4.188E-10   AT NODE      15410   DOF  2
   INSTANCE: COMPOSITEPLATE-1                                                                
 LARGEST INCREMENT OF DISP.         1.410E-05   AT NODE         10   DOF  2
   INSTANCE: COMPOSITEPLATE-1                                                                
 LARGEST CORRECTION TO DISP.       -1.925E-11   AT NODE       5249   DOF  2
   INSTANCE: COMPOSITEPLATE-1                                                                
          THE FORCE     EQUILIBRIUM EQUATIONS HAVE CONVERGED

 AVERAGE MOMENT                     3.728E-19   TIME AVG. MOMENT      1.000E-02
 LARGEST RESIDUAL MOMENT            8.828E-18   AT NODE      14371   DOF  4
   INSTANCE: COMPOSITEPLATE-1                                                                
 LARGEST INCREMENT OF ROTATION      1.010E-21   AT NODE         10   DOF  5
   INSTANCE: COMPOSITEPLATE-1                                                                
 LARGEST CORRECTION TO ROTATION    -1.560E-21   AT NODE        502   DOF  5
   INSTANCE: COMPOSITEPLATE-1                                                                
          THERE IS ZERO MOMENT    EVERYWHERE
 

 ***WARNING: THERE IS ZERO MOMENT EVERYWHERE IN THE MODEL BASED ON THE DEFAULT 
             CRITERION. PLEASE CHECK THE VALUE OF THE AVERAGE MOMENT DURING THE 
             CURRENT ITERATION TO VERIFY THAT THE MOMENT IS SMALL ENOUGH TO BE 
             TREATED AS ZERO. IF NOT, PLEASE USE THE SOLUTION CONTROLS TO RESET 
             THE CRITERION FOR ZERO MOMENT.
          TIME INCREMENT MAY NOW INCREASE TO    3.844E-04

 ITERATION SUMMARY FOR THE INCREMENT:   1 TOTAL ITERATIONS, OF WHICH
   0 ARE SEVERE DISCONTINUITY ITERATIONS AND  1 ARE EQUILIBRIUM ITERATIONS.

 TIME INCREMENT COMPLETED  2.563E-04,  FRACTION OF STEP COMPLETED  7.589E-04
 STEP TIME COMPLETED       7.589E-04,  TOTAL TIME COMPLETED        7.589E-04


  INCREMENT    11 STARTS. ATTEMPT NUMBER  1, TIME INCREMENT  3.844E-04

  NUMBER OF EQUATIONS =     80220     NUMBER OF FLOATING PT. OPERATIONS =  7.65E+09

     CHECK POINT   START OF SOLVER    

     CHECK POINT  END OF SOLVER       

       ELAPSED USER TIME (SEC)      =  0.80000    
       ELAPSED SYSTEM TIME (SEC)    =   0.0000    
       ELAPSED TOTAL CPU TIME (SEC) =  0.80000    
       ELAPSED WALLCLOCK TIME (SEC) =          1
 

 ***WARNING: SOLVER PROBLEM. NUMERICAL SINGULARITY WHEN PROCESSING NODE 
             COMPOSITEPLATE-1.4 D.O.F. 3 RATIO = 56.1023E+12 .

               CONVERGENCE CHECKS FOR EQUILIBRIUM ITERATION     1


 AVERAGE FORCE                      2.631E-02   TIME AVG. FORCE       6.917E-03
 LARGEST RESIDUAL FORCE            -3.430E-10   AT NODE      12398   DOF  2
   INSTANCE: COMPOSITEPLATE-1                                                                
 LARGEST INCREMENT OF DISP.         2.114E-05   AT NODE         10   DOF  2
   INSTANCE: COMPOSITEPLATE-1                                                                
 LARGEST CORRECTION TO DISP.       -4.330E-11   AT NODE       5249   DOF  2
   INSTANCE: COMPOSITEPLATE-1                                                                
          THE FORCE     EQUILIBRIUM EQUATIONS HAVE CONVERGED

 AVERAGE MOMENT                     5.514E-19   TIME AVG. MOMENT      1.000E-02
 LARGEST RESIDUAL MOMENT           -9.922E-18   AT NODE      10339   DOF  4
   INSTANCE: COMPOSITEPLATE-1                                                                
 LARGEST INCREMENT OF ROTATION     -2.675E-21   AT NODE         13   DOF  4
   INSTANCE: COMPOSITEPLATE-1                                                                
 LARGEST CORRECTION TO ROTATION    -3.049E-21   AT NODE         13   DOF  4
   INSTANCE: COMPOSITEPLATE-1                                                                
          THERE IS ZERO MOMENT    EVERYWHERE
 

 ***WARNING: THERE IS ZERO MOMENT EVERYWHERE IN THE MODEL BASED ON THE DEFAULT 
             CRITERION. PLEASE CHECK THE VALUE OF THE AVERAGE MOMENT DURING THE 
             CURRENT ITERATION TO VERIFY THAT THE MOMENT IS SMALL ENOUGH TO BE 
             TREATED AS ZERO. IF NOT, PLEASE USE THE SOLUTION CONTROLS TO RESET 
             THE CRITERION FOR ZERO MOMENT.
          TIME INCREMENT MAY NOW INCREASE TO    5.767E-04

 ITERATION SUMMARY FOR THE INCREMENT:   1 TOTAL ITERATIONS, OF WHICH
   0 ARE SEVERE DISCONTINUITY ITERATIONS AND  1 ARE EQUILIBRIUM ITERATIONS.

 TIME INCREMENT COMPLETED  3.844E-04,  FRACTION OF STEP COMPLETED  1.143E-03
 STEP TIME COMPLETED       1.143E-03,  TOTAL TIME COMPLETED        1.143E-03


  INCREMENT    12 STARTS. ATTEMPT NUMBER  1, TIME INCREMENT  5.767E-04

  NUMBER OF EQUATIONS =     80220     NUMBER OF FLOATING PT. OPERATIONS =  7.65E+09

     CHECK POINT   START OF SOLVER    

     CHECK POINT  END OF SOLVER       

       ELAPSED USER TIME (SEC)      =  0.80000    
       ELAPSED SYSTEM TIME (SEC)    =   0.0000    
       ELAPSED TOTAL CPU TIME (SEC) =  0.80000    
       ELAPSED WALLCLOCK TIME (SEC) =          1
 

 ***WARNING: SOLVER PROBLEM. NUMERICAL SINGULARITY WHEN PROCESSING NODE 
             COMPOSITEPLATE-1.4 D.O.F. 3 RATIO = 68.1438E+12 .

               CONVERGENCE CHECKS FOR EQUILIBRIUM ITERATION     1


 AVERAGE FORCE                      3.958E-02   TIME AVG. FORCE       9.639E-03
 LARGEST RESIDUAL FORCE            -3.927E-10   AT NODE      10603   DOF  2
   INSTANCE: COMPOSITEPLATE-1                                                                
 LARGEST INCREMENT OF DISP.         3.172E-05   AT NODE         10   DOF  2
   INSTANCE: COMPOSITEPLATE-1                                                                
 LARGEST CORRECTION TO DISP.        9.743E-11   AT NODE       5283   DOF  2
   INSTANCE: COMPOSITEPLATE-1                                                                
          THE FORCE     EQUILIBRIUM EQUATIONS HAVE CONVERGED

 AVERAGE MOMENT                     8.145E-19   TIME AVG. MOMENT      1.000E-02
 LARGEST RESIDUAL MOMENT            1.629E-17   AT NODE      14480   DOF  4
   INSTANCE: COMPOSITEPLATE-1                                                                
 LARGEST INCREMENT OF ROTATION      3.329E-21   AT NODE         16   DOF  4
   INSTANCE: COMPOSITEPLATE-1                                                                
 LARGEST CORRECTION TO ROTATION     5.845E-21   AT NODE         16   DOF  4
   INSTANCE: COMPOSITEPLATE-1                                                                
          THERE IS ZERO MOMENT    EVERYWHERE
 

 ***WARNING: THERE IS ZERO MOMENT EVERYWHERE IN THE MODEL BASED ON THE DEFAULT 
             CRITERION. PLEASE CHECK THE VALUE OF THE AVERAGE MOMENT DURING THE 
             CURRENT ITERATION TO VERIFY THAT THE MOMENT IS SMALL ENOUGH TO BE 
             TREATED AS ZERO. IF NOT, PLEASE USE THE SOLUTION CONTROLS TO RESET 
             THE CRITERION FOR ZERO MOMENT.
          TIME INCREMENT MAY NOW INCREASE TO    8.650E-04

 ITERATION SUMMARY FOR THE INCREMENT:   1 TOTAL ITERATIONS, OF WHICH
   0 ARE SEVERE DISCONTINUITY ITERATIONS AND  1 ARE EQUILIBRIUM ITERATIONS.

 TIME INCREMENT COMPLETED  5.767E-04,  FRACTION OF STEP COMPLETED  1.720E-03
 STEP TIME COMPLETED       1.720E-03,  TOTAL TIME COMPLETED        1.720E-03


  INCREMENT    13 STARTS. ATTEMPT NUMBER  1, TIME INCREMENT  8.650E-04

  NUMBER OF EQUATIONS =     80220     NUMBER OF FLOATING PT. OPERATIONS =  7.65E+09

     CHECK POINT   START OF SOLVER    

     CHECK POINT  END OF SOLVER       

       ELAPSED USER TIME (SEC)      =  0.80000    
       ELAPSED SYSTEM TIME (SEC)    =   0.0000    
       ELAPSED TOTAL CPU TIME (SEC) =  0.80000    
       ELAPSED WALLCLOCK TIME (SEC) =          1
 

 ***WARNING: SOLVER PROBLEM. NUMERICAL SINGULARITY WHEN PROCESSING NODE 
             COMPOSITEPLATE-1.4 D.O.F. 3 RATIO = 70.0917E+12 .

               CONVERGENCE CHECKS FOR EQUILIBRIUM ITERATION     1


 AVERAGE FORCE                      5.948E-02   TIME AVG. FORCE       1.347E-02
 LARGEST RESIDUAL FORCE            -4.826E-10   AT NODE      10604   DOF  2
   INSTANCE: COMPOSITEPLATE-1                                                                
 LARGEST INCREMENT OF DISP.         4.757E-05   AT NODE         10   DOF  2
   INSTANCE: COMPOSITEPLATE-1                                                                
 LARGEST CORRECTION TO DISP.       -2.192E-10   AT NODE       5249   DOF  2
   INSTANCE: COMPOSITEPLATE-1                                                                
          THE FORCE     EQUILIBRIUM EQUATIONS HAVE CONVERGED

 AVERAGE MOMENT                     1.283E-18   TIME AVG. MOMENT      1.000E-02
 LARGEST RESIDUAL MOMENT           -3.218E-17   AT NODE      15821   DOF  4
   INSTANCE: COMPOSITEPLATE-1                                                                
 LARGEST INCREMENT OF ROTATION      3.181E-21   AT NODE        462   DOF  5
   INSTANCE: COMPOSITEPLATE-1                                                                
 LARGEST CORRECTION TO ROTATION    -7.263E-21   AT NODE         16   DOF  4
   INSTANCE: COMPOSITEPLATE-1                                                                
          THERE IS ZERO MOMENT    EVERYWHERE
 

 ***WARNING: THERE IS ZERO MOMENT EVERYWHERE IN THE MODEL BASED ON THE DEFAULT 
             CRITERION. PLEASE CHECK THE VALUE OF THE AVERAGE MOMENT DURING THE 
             CURRENT ITERATION TO VERIFY THAT THE MOMENT IS SMALL ENOUGH TO BE 
             TREATED AS ZERO. IF NOT, PLEASE USE THE SOLUTION CONTROLS TO RESET 
             THE CRITERION FOR ZERO MOMENT.
          TIME INCREMENT MAY NOW INCREASE TO    1.297E-03

 ITERATION SUMMARY FOR THE INCREMENT:   1 TOTAL ITERATIONS, OF WHICH
   0 ARE SEVERE DISCONTINUITY ITERATIONS AND  1 ARE EQUILIBRIUM ITERATIONS.

 TIME INCREMENT COMPLETED  8.650E-04,  FRACTION OF STEP COMPLETED  2.585E-03
 STEP TIME COMPLETED       2.585E-03,  TOTAL TIME COMPLETED        2.585E-03


  INCREMENT    14 STARTS. ATTEMPT NUMBER  1, TIME INCREMENT  1.297E-03

  NUMBER OF EQUATIONS =     80220     NUMBER OF FLOATING PT. OPERATIONS =  7.65E+09

     CHECK POINT   START OF SOLVER    

     CHECK POINT  END OF SOLVER       

       ELAPSED USER TIME (SEC)      =  0.80000    
       ELAPSED SYSTEM TIME (SEC)    =   0.0000    
       ELAPSED TOTAL CPU TIME (SEC) =  0.80000    
       ELAPSED WALLCLOCK TIME (SEC) =          1
 

 ***WARNING: SOLVER PROBLEM. NUMERICAL SINGULARITY WHEN PROCESSING NODE 
             COMPOSITEPLATE-1.4 D.O.F. 3 RATIO = 16.5497E+12 .

               CONVERGENCE CHECKS FOR EQUILIBRIUM ITERATION     1


 AVERAGE FORCE                      8.933E-02   TIME AVG. FORCE       1.889E-02
 LARGEST RESIDUAL FORCE            -3.827E-10   AT NODE      12718   DOF  1
   INSTANCE: COMPOSITEPLATE-1                                                                
 LARGEST INCREMENT OF DISP.         7.136E-05   AT NODE         10   DOF  2
   INSTANCE: COMPOSITEPLATE-1                                                                
 LARGEST CORRECTION TO DISP.        4.932E-10   AT NODE       5283   DOF  2
   INSTANCE: COMPOSITEPLATE-1                                                                
          THE FORCE     EQUILIBRIUM EQUATIONS HAVE CONVERGED

 AVERAGE MOMENT                     1.794E-18   TIME AVG. MOMENT      1.000E-02
 LARGEST RESIDUAL MOMENT           -3.685E-17   AT NODE      14879   DOF  4
   INSTANCE: COMPOSITEPLATE-1                                                                
 LARGEST INCREMENT OF ROTATION      9.388E-21   AT NODE         13   DOF  5
   INSTANCE: COMPOSITEPLATE-1                                                                
 LARGEST CORRECTION TO ROTATION     1.362E-20   AT NODE         13   DOF  5
   INSTANCE: COMPOSITEPLATE-1                                                                
          THERE IS ZERO MOMENT    EVERYWHERE
 

 ***WARNING: THERE IS ZERO MOMENT EVERYWHERE IN THE MODEL BASED ON THE DEFAULT 
             CRITERION. PLEASE CHECK THE VALUE OF THE AVERAGE MOMENT DURING THE 
             CURRENT ITERATION TO VERIFY THAT THE MOMENT IS SMALL ENOUGH TO BE 
             TREATED AS ZERO. IF NOT, PLEASE USE THE SOLUTION CONTROLS TO RESET 
             THE CRITERION FOR ZERO MOMENT.
          TIME INCREMENT MAY NOW INCREASE TO    1.946E-03

 ITERATION SUMMARY FOR THE INCREMENT:   1 TOTAL ITERATIONS, OF WHICH
   0 ARE SEVERE DISCONTINUITY ITERATIONS AND  1 ARE EQUILIBRIUM ITERATIONS.

 TIME INCREMENT COMPLETED  1.297E-03,  FRACTION OF STEP COMPLETED  3.882E-03
 STEP TIME COMPLETED       3.882E-03,  TOTAL TIME COMPLETED        3.882E-03


  INCREMENT    15 STARTS. ATTEMPT NUMBER  1, TIME INCREMENT  1.946E-03

  NUMBER OF EQUATIONS =     80220     NUMBER OF FLOATING PT. OPERATIONS =  7.65E+09

     CHECK POINT   START OF SOLVER    

     CHECK POINT  END OF SOLVER       

       ELAPSED USER TIME (SEC)      =  0.70000    
       ELAPSED SYSTEM TIME (SEC)    =  0.10000    
       ELAPSED TOTAL CPU TIME (SEC) =  0.80000    
       ELAPSED WALLCLOCK TIME (SEC) =          1
 

 ***WARNING: SOLVER PROBLEM. NUMERICAL SINGULARITY WHEN PROCESSING NODE 
             COMPOSITEPLATE-1.4 D.O.F. 3 RATIO = 13.8696E+12 .

               CONVERGENCE CHECKS FOR EQUILIBRIUM ITERATION     1


 AVERAGE FORCE                      0.134       TIME AVG. FORCE       2.657E-02
 LARGEST RESIDUAL FORCE            -3.827E-10   AT NODE      12644   DOF  2
   INSTANCE: COMPOSITEPLATE-1                                                                
 LARGEST INCREMENT OF DISP.         1.070E-04   AT NODE         10   DOF  2
   INSTANCE: COMPOSITEPLATE-1                                                                
 LARGEST CORRECTION TO DISP.        1.110E-09   AT NODE       5283   DOF  2
   INSTANCE: COMPOSITEPLATE-1                                                                
          THE FORCE     EQUILIBRIUM EQUATIONS HAVE CONVERGED

 AVERAGE MOMENT                     2.892E-18   TIME AVG. MOMENT      1.000E-02
 LARGEST RESIDUAL MOMENT            5.671E-17   AT NODE      15611   DOF  4
   INSTANCE: COMPOSITEPLATE-1                                                                
 LARGEST INCREMENT OF ROTATION      9.964E-21   AT NODE         13   DOF  4
   INSTANCE: COMPOSITEPLATE-1                                                                
 LARGEST CORRECTION TO ROTATION    -2.366E-20   AT NODE         13   DOF  5
   INSTANCE: COMPOSITEPLATE-1                                                                
          THERE IS ZERO MOMENT    EVERYWHERE
 

 ***WARNING: THERE IS ZERO MOMENT EVERYWHERE IN THE MODEL BASED ON THE DEFAULT 
             CRITERION. PLEASE CHECK THE VALUE OF THE AVERAGE MOMENT DURING THE 
             CURRENT ITERATION TO VERIFY THAT THE MOMENT IS SMALL ENOUGH TO BE 
             TREATED AS ZERO. IF NOT, PLEASE USE THE SOLUTION CONTROLS TO RESET 
             THE CRITERION FOR ZERO MOMENT.
          TIME INCREMENT MAY NOW INCREASE TO    2.919E-03

 ITERATION SUMMARY FOR THE INCREMENT:   1 TOTAL ITERATIONS, OF WHICH
   0 ARE SEVERE DISCONTINUITY ITERATIONS AND  1 ARE EQUILIBRIUM ITERATIONS.

 TIME INCREMENT COMPLETED  1.946E-03,  FRACTION OF STEP COMPLETED  5.829E-03
 STEP TIME COMPLETED       5.829E-03,  TOTAL TIME COMPLETED        5.829E-03


  INCREMENT    16 STARTS. ATTEMPT NUMBER  1, TIME INCREMENT  2.919E-03

  NUMBER OF EQUATIONS =     80220     NUMBER OF FLOATING PT. OPERATIONS =  7.65E+09

     CHECK POINT   START OF SOLVER    

     CHECK POINT  END OF SOLVER       

       ELAPSED USER TIME (SEC)      =  0.80000    
       ELAPSED SYSTEM TIME (SEC)    =   0.0000    
       ELAPSED TOTAL CPU TIME (SEC) =  0.80000    
       ELAPSED WALLCLOCK TIME (SEC) =          0
 

 ***WARNING: SOLVER PROBLEM. NUMERICAL SINGULARITY WHEN PROCESSING NODE 
             COMPOSITEPLATE-1.4 D.O.F. 3 RATIO = 15.3827E+12 .

               CONVERGENCE CHECKS FOR EQUILIBRIUM ITERATION     1


 AVERAGE FORCE                      0.201       TIME AVG. FORCE       3.749E-02
 LARGEST RESIDUAL FORCE             4.012E-10   AT NODE      14148   DOF  1
   INSTANCE: COMPOSITEPLATE-1                                                                
 LARGEST INCREMENT OF DISP.         1.606E-04   AT NODE         10   DOF  2
   INSTANCE: COMPOSITEPLATE-1                                                                
 LARGEST CORRECTION TO DISP.       -2.496E-09   AT NODE       5249   DOF  2
   INSTANCE: COMPOSITEPLATE-1                                                                
          THE FORCE     EQUILIBRIUM EQUATIONS HAVE CONVERGED

 AVERAGE MOMENT                     4.182E-18   TIME AVG. MOMENT      1.000E-02
 LARGEST RESIDUAL MOMENT           -7.754E-17   AT NODE       9731   DOF  4
   INSTANCE: COMPOSITEPLATE-1                                                                
 LARGEST INCREMENT OF ROTATION     -1.335E-20   AT NODE         13   DOF  4
   INSTANCE: COMPOSITEPLATE-1                                                                
 LARGEST CORRECTION TO ROTATION    -2.829E-20   AT NODE         13   DOF  4
   INSTANCE: COMPOSITEPLATE-1                                                                
          THERE IS ZERO MOMENT    EVERYWHERE
 

 ***WARNING: THERE IS ZERO MOMENT EVERYWHERE IN THE MODEL BASED ON THE DEFAULT 
             CRITERION. PLEASE CHECK THE VALUE OF THE AVERAGE MOMENT DURING THE 
             CURRENT ITERATION TO VERIFY THAT THE MOMENT IS SMALL ENOUGH TO BE 
             TREATED AS ZERO. IF NOT, PLEASE USE THE SOLUTION CONTROLS TO RESET 
             THE CRITERION FOR ZERO MOMENT.
          TIME INCREMENT MAY NOW INCREASE TO    4.379E-03

 ITERATION SUMMARY FOR THE INCREMENT:   1 TOTAL ITERATIONS, OF WHICH
   0 ARE SEVERE DISCONTINUITY ITERATIONS AND  1 ARE EQUILIBRIUM ITERATIONS.

 TIME INCREMENT COMPLETED  2.919E-03,  FRACTION OF STEP COMPLETED  8.748E-03
 STEP TIME COMPLETED       8.748E-03,  TOTAL TIME COMPLETED        8.748E-03


  INCREMENT    17 STARTS. ATTEMPT NUMBER  1, TIME INCREMENT  4.379E-03

  NUMBER OF EQUATIONS =     80220     NUMBER OF FLOATING PT. OPERATIONS =  7.65E+09

     CHECK POINT   START OF SOLVER    

     CHECK POINT  END OF SOLVER       

       ELAPSED USER TIME (SEC)      =  0.80000    
       ELAPSED SYSTEM TIME (SEC)    =  0.10000    
       ELAPSED TOTAL CPU TIME (SEC) =  0.90000    
       ELAPSED WALLCLOCK TIME (SEC) =          0
 

 ***WARNING: SOLVER PROBLEM. NUMERICAL SINGULARITY WHEN PROCESSING NODE 
             COMPOSITEPLATE-1.4 D.O.F. 3 RATIO = 96.4385E+12 .

               CONVERGENCE CHECKS FOR EQUILIBRIUM ITERATION     1


 AVERAGE FORCE                      0.302       TIME AVG. FORCE       5.306E-02
 LARGEST RESIDUAL FORCE            -3.699E-10   AT NODE       2884   DOF  1
   INSTANCE: COMPOSITEPLATE-1                                                                
 LARGEST INCREMENT OF DISP.         2.408E-04   AT NODE         10   DOF  2
   INSTANCE: COMPOSITEPLATE-1                                                                
 LARGEST CORRECTION TO DISP.        5.615E-09   AT NODE       5283   DOF  2
   INSTANCE: COMPOSITEPLATE-1                                                                
          THE FORCE     EQUILIBRIUM RESPONSE WAS LINEAR IN THIS INCREMENT

 AVERAGE MOMENT                     6.379E-18   TIME AVG. MOMENT      1.000E-02
 LARGEST RESIDUAL MOMENT           -1.517E-16   AT NODE      14263   DOF  4
   INSTANCE: COMPOSITEPLATE-1                                                                
 LARGEST INCREMENT OF ROTATION      2.456E-20   AT NODE         13   DOF  4
   INSTANCE: COMPOSITEPLATE-1                                                                
 LARGEST CORRECTION TO ROTATION     4.458E-20   AT NODE         13   DOF  4
   INSTANCE: COMPOSITEPLATE-1                                                                
          THERE IS ZERO MOMENT    EVERYWHERE
 

 ***WARNING: THERE IS ZERO MOMENT EVERYWHERE IN THE MODEL BASED ON THE DEFAULT 
             CRITERION. PLEASE CHECK THE VALUE OF THE AVERAGE MOMENT DURING THE 
             CURRENT ITERATION TO VERIFY THAT THE MOMENT IS SMALL ENOUGH TO BE 
             TREATED AS ZERO. IF NOT, PLEASE USE THE SOLUTION CONTROLS TO RESET 
             THE CRITERION FOR ZERO MOMENT.
          TIME INCREMENT MAY NOW INCREASE TO    6.568E-03

 ITERATION SUMMARY FOR THE INCREMENT:   1 TOTAL ITERATIONS, OF WHICH
   0 ARE SEVERE DISCONTINUITY ITERATIONS AND  1 ARE EQUILIBRIUM ITERATIONS.

 TIME INCREMENT COMPLETED  4.379E-03,  FRACTION OF STEP COMPLETED  1.313E-02
 STEP TIME COMPLETED       1.313E-02,  TOTAL TIME COMPLETED        1.313E-02


  INCREMENT    18 STARTS. ATTEMPT NUMBER  1, TIME INCREMENT  6.568E-03

  NUMBER OF EQUATIONS =     80220     NUMBER OF FLOATING PT. OPERATIONS =  7.65E+09

     CHECK POINT   START OF SOLVER    

     CHECK POINT  END OF SOLVER       

       ELAPSED USER TIME (SEC)      =  0.80000    
       ELAPSED SYSTEM TIME (SEC)    =   0.0000    
       ELAPSED TOTAL CPU TIME (SEC) =  0.80000    
       ELAPSED WALLCLOCK TIME (SEC) =          1
 

 ***WARNING: SOLVER PROBLEM. NUMERICAL SINGULARITY WHEN PROCESSING NODE 
             COMPOSITEPLATE-1.4 D.O.F. 3 RATIO = 43.5235E+12 .

               CONVERGENCE CHECKS FOR EQUILIBRIUM ITERATION     1


 AVERAGE FORCE                      0.453       TIME AVG. FORCE       7.529E-02
 LARGEST RESIDUAL FORCE            -3.810E-10   AT NODE      12644   DOF  2
   INSTANCE: COMPOSITEPLATE-1                                                                
 LARGEST INCREMENT OF DISP.         3.613E-04   AT NODE         10   DOF  2
   INSTANCE: COMPOSITEPLATE-1                                                                
 LARGEST CORRECTION TO DISP.       -1.263E-08   AT NODE       5249   DOF  2
   INSTANCE: COMPOSITEPLATE-1                                                                
          THE FORCE     EQUILIBRIUM RESPONSE WAS LINEAR IN THIS INCREMENT

 AVERAGE MOMENT                     9.539E-18   TIME AVG. MOMENT      1.000E-02
 LARGEST RESIDUAL MOMENT           -2.002E-16   AT NODE      14125   DOF  4
   INSTANCE: COMPOSITEPLATE-1                                                                
 LARGEST INCREMENT OF ROTATION      2.838E-20   AT NODE         13   DOF  4
   INSTANCE: COMPOSITEPLATE-1                                                                
 LARGEST CORRECTION TO ROTATION     4.617E-20   AT NODE        415   DOF  5
   INSTANCE: COMPOSITEPLATE-1                                                                
          THERE IS ZERO MOMENT    EVERYWHERE
 

 ***WARNING: THERE IS ZERO MOMENT EVERYWHERE IN THE MODEL BASED ON THE DEFAULT 
             CRITERION. PLEASE CHECK THE VALUE OF THE AVERAGE MOMENT DURING THE 
             CURRENT ITERATION TO VERIFY THAT THE MOMENT IS SMALL ENOUGH TO BE 
             TREATED AS ZERO. IF NOT, PLEASE USE THE SOLUTION CONTROLS TO RESET 
             THE CRITERION FOR ZERO MOMENT.
          TIME INCREMENT MAY NOW INCREASE TO    9.853E-03

 ITERATION SUMMARY FOR THE INCREMENT:   1 TOTAL ITERATIONS, OF WHICH
   0 ARE SEVERE DISCONTINUITY ITERATIONS AND  1 ARE EQUILIBRIUM ITERATIONS.

 TIME INCREMENT COMPLETED  6.568E-03,  FRACTION OF STEP COMPLETED  1.970E-02
 STEP TIME COMPLETED       1.970E-02,  TOTAL TIME COMPLETED        1.970E-02


  INCREMENT    19 STARTS. ATTEMPT NUMBER  1, TIME INCREMENT  9.853E-03

  NUMBER OF EQUATIONS =     80220     NUMBER OF FLOATING PT. OPERATIONS =  7.65E+09

     CHECK POINT   START OF SOLVER    

     CHECK POINT  END OF SOLVER       

       ELAPSED USER TIME (SEC)      =  0.90000    
       ELAPSED SYSTEM TIME (SEC)    =   0.0000    
       ELAPSED TOTAL CPU TIME (SEC) =  0.90000    
       ELAPSED WALLCLOCK TIME (SEC) =          0
 

 ***WARNING: SOLVER PROBLEM. NUMERICAL SINGULARITY WHEN PROCESSING NODE 
             COMPOSITEPLATE-1.4 D.O.F. 3 RATIO = 15.6182E+12 .

               CONVERGENCE CHECKS FOR EQUILIBRIUM ITERATION     1


 AVERAGE FORCE                      0.680       TIME AVG. FORCE       0.107    
 LARGEST RESIDUAL FORCE             5.588E-10   AT NODE       7246   DOF  2
   INSTANCE: COMPOSITEPLATE-1                                                                
 LARGEST INCREMENT OF DISP.         5.419E-04   AT NODE         10   DOF  2
   INSTANCE: COMPOSITEPLATE-1                                                                
 LARGEST CORRECTION TO DISP.       -2.840E-08   AT NODE       5249   DOF  2
   INSTANCE: COMPOSITEPLATE-1                                                                
          THE FORCE     EQUILIBRIUM RESPONSE WAS LINEAR IN THIS INCREMENT

 AVERAGE MOMENT                     1.387E-17   TIME AVG. MOMENT      1.230E-02
                                                (FROM FORCE     FIELD)
 LARGEST RESIDUAL MOMENT            2.342E-16   AT NODE      15979   DOF  4
   INSTANCE: COMPOSITEPLATE-1                                                                
 LARGEST INCREMENT OF ROTATION     -4.348E-20   AT NODE         13   DOF  4
   INSTANCE: COMPOSITEPLATE-1                                                                
 LARGEST CORRECTION TO ROTATION    -8.606E-20   AT NODE         13   DOF  4
   INSTANCE: COMPOSITEPLATE-1                                                                
          THERE IS ZERO MOMENT    EVERYWHERE
          TIME INCREMENT MAY NOW INCREASE TO    1.478E-02

 ITERATION SUMMARY FOR THE INCREMENT:   1 TOTAL ITERATIONS, OF WHICH
   0 ARE SEVERE DISCONTINUITY ITERATIONS AND  1 ARE EQUILIBRIUM ITERATIONS.

 TIME INCREMENT COMPLETED  9.853E-03,  FRACTION OF STEP COMPLETED  2.955E-02
 STEP TIME COMPLETED       2.955E-02,  TOTAL TIME COMPLETED        2.955E-02


  INCREMENT    20 STARTS. ATTEMPT NUMBER  1, TIME INCREMENT  1.478E-02

  NUMBER OF EQUATIONS =     80220     NUMBER OF FLOATING PT. OPERATIONS =  7.65E+09

     CHECK POINT   START OF SOLVER    

     CHECK POINT  END OF SOLVER       

       ELAPSED USER TIME (SEC)      =  0.80000    
       ELAPSED SYSTEM TIME (SEC)    =  0.10000    
       ELAPSED TOTAL CPU TIME (SEC) =  0.90000    
       ELAPSED WALLCLOCK TIME (SEC) =          1
 

 ***WARNING: SOLVER PROBLEM. NUMERICAL SINGULARITY WHEN PROCESSING NODE 
             COMPOSITEPLATE-1.4 D.O.F. 3 RATIO = 13.0381E+12 .

               CONVERGENCE CHECKS FOR EQUILIBRIUM ITERATION     1


 AVERAGE FORCE                       1.02       TIME AVG. FORCE       0.153    
 LARGEST RESIDUAL FORCE            -1.638E-09   AT NODE       8118   DOF  2
   INSTANCE: COMPOSITEPLATE-1                                                                
 LARGEST INCREMENT OF DISP.         8.128E-04   AT NODE         10   DOF  2
   INSTANCE: COMPOSITEPLATE-1                                                                
 LARGEST CORRECTION TO DISP.       -6.386E-08   AT NODE       5249   DOF  2
   INSTANCE: COMPOSITEPLATE-1                                                                
          THE FORCE     EQUILIBRIUM EQUATIONS HAVE CONVERGED

 AVERAGE MOMENT                     2.255E-17   TIME AVG. MOMENT      1.750E-02
                                                (FROM FORCE     FIELD)
 LARGEST RESIDUAL MOMENT            4.683E-16   AT NODE      14282   DOF  4
   INSTANCE: COMPOSITEPLATE-1                                                                
 LARGEST INCREMENT OF ROTATION     -5.597E-20   AT NODE        466   DOF  5
   INSTANCE: COMPOSITEPLATE-1                                                                
 LARGEST CORRECTION TO ROTATION    -8.414E-20   AT NODE        464   DOF  5
   INSTANCE: COMPOSITEPLATE-1                                                                
          THERE IS ZERO MOMENT    EVERYWHERE
          TIME INCREMENT MAY NOW INCREASE TO    2.217E-02

 ITERATION SUMMARY FOR THE INCREMENT:   1 TOTAL ITERATIONS, OF WHICH
   0 ARE SEVERE DISCONTINUITY ITERATIONS AND  1 ARE EQUILIBRIUM ITERATIONS.

 TIME INCREMENT COMPLETED  1.478E-02,  FRACTION OF STEP COMPLETED  4.433E-02
 STEP TIME COMPLETED       4.433E-02,  TOTAL TIME COMPLETED        4.433E-02


  INCREMENT    21 STARTS. ATTEMPT NUMBER  1, TIME INCREMENT  2.217E-02

  NUMBER OF EQUATIONS =     80220     NUMBER OF FLOATING PT. OPERATIONS =  7.65E+09

     CHECK POINT   START OF SOLVER    

     CHECK POINT  END OF SOLVER       

       ELAPSED USER TIME (SEC)      =  0.80000    
       ELAPSED SYSTEM TIME (SEC)    =   0.0000    
       ELAPSED TOTAL CPU TIME (SEC) =  0.80000    
       ELAPSED WALLCLOCK TIME (SEC) =          0
 

 ***WARNING: SOLVER PROBLEM. NUMERICAL SINGULARITY WHEN PROCESSING NODE 
             COMPOSITEPLATE-1.4 D.O.F. 3 RATIO = 91.4775E+12 .

               CONVERGENCE CHECKS FOR EQUILIBRIUM ITERATION     1


 AVERAGE FORCE                       1.53       TIME AVG. FORCE       0.218    
 LARGEST RESIDUAL FORCE             5.155E-09   AT NODE       4814   DOF  2
   INSTANCE: COMPOSITEPLATE-1                                                                
 LARGEST INCREMENT OF DISP.         1.219E-03   AT NODE         10   DOF  2
   INSTANCE: COMPOSITEPLATE-1                                                                
 LARGEST CORRECTION TO DISP.       -1.435E-07   AT NODE       5249   DOF  2
   INSTANCE: COMPOSITEPLATE-1                                                                
          THE FORCE     EQUILIBRIUM EQUATIONS HAVE CONVERGED

 AVERAGE MOMENT                     3.124E-17   TIME AVG. MOMENT      2.495E-02
                                                (FROM FORCE     FIELD)
 LARGEST RESIDUAL MOMENT           -6.726E-16   AT NODE      12665   DOF  4
   INSTANCE: COMPOSITEPLATE-1                                                                
 LARGEST INCREMENT OF ROTATION      8.405E-20   AT NODE        403   DOF  5
   INSTANCE: COMPOSITEPLATE-1                                                                
 LARGEST CORRECTION TO ROTATION     1.356E-19   AT NODE        411   DOF  4
   INSTANCE: COMPOSITEPLATE-1                                                                
          THERE IS ZERO MOMENT    EVERYWHERE
          TIME INCREMENT MAY NOW INCREASE TO    3.325E-02

 ITERATION SUMMARY FOR THE INCREMENT:   1 TOTAL ITERATIONS, OF WHICH
   0 ARE SEVERE DISCONTINUITY ITERATIONS AND  1 ARE EQUILIBRIUM ITERATIONS.

 TIME INCREMENT COMPLETED  2.217E-02,  FRACTION OF STEP COMPLETED  6.650E-02
 STEP TIME COMPLETED       6.650E-02,  TOTAL TIME COMPLETED        6.650E-02


  INCREMENT    22 STARTS. ATTEMPT NUMBER  1, TIME INCREMENT  3.325E-02

  NUMBER OF EQUATIONS =     80220     NUMBER OF FLOATING PT. OPERATIONS =  7.65E+09

     CHECK POINT   START OF SOLVER    

     CHECK POINT  END OF SOLVER       

       ELAPSED USER TIME (SEC)      =  0.80000    
       ELAPSED SYSTEM TIME (SEC)    =   0.0000    
       ELAPSED TOTAL CPU TIME (SEC) =  0.80000    
       ELAPSED WALLCLOCK TIME (SEC) =          1
 

 ***WARNING: SOLVER PROBLEM. NUMERICAL SINGULARITY WHEN PROCESSING NODE 
             COMPOSITEPLATE-1.4 D.O.F. 3 RATIO = 66.0601E+12 .

               CONVERGENCE CHECKS FOR EQUILIBRIUM ITERATION     1


 AVERAGE FORCE                       2.30       TIME AVG. FORCE       0.313    
 LARGEST RESIDUAL FORCE            -1.711E-08   AT NODE       5713   DOF  2
   INSTANCE: COMPOSITEPLATE-1                                                                
 LARGEST INCREMENT OF DISP.         1.829E-03   AT NODE         10   DOF  2
   INSTANCE: COMPOSITEPLATE-1                                                                
 LARGEST CORRECTION TO DISP.       -3.225E-07   AT NODE       5249   DOF  2
   INSTANCE: COMPOSITEPLATE-1                                                                
          THE FORCE     EQUILIBRIUM EQUATIONS HAVE CONVERGED

 AVERAGE MOMENT                     4.893E-17   TIME AVG. MOMENT      3.568E-02
                                                (FROM FORCE     FIELD)
 LARGEST RESIDUAL MOMENT            9.174E-16   AT NODE       9976   DOF  4
   INSTANCE: COMPOSITEPLATE-1                                                                
 LARGEST INCREMENT OF ROTATION     -1.513E-19   AT NODE        448   DOF  5
   INSTANCE: COMPOSITEPLATE-1                                                                
 LARGEST CORRECTION TO ROTATION    -2.592E-19   AT NODE        403   DOF  5
   INSTANCE: COMPOSITEPLATE-1                                                                
          THERE IS ZERO MOMENT    EVERYWHERE
          TIME INCREMENT MAY NOW INCREASE TO    4.988E-02

 ITERATION SUMMARY FOR THE INCREMENT:   1 TOTAL ITERATIONS, OF WHICH
   0 ARE SEVERE DISCONTINUITY ITERATIONS AND  1 ARE EQUILIBRIUM ITERATIONS.

 TIME INCREMENT COMPLETED  3.325E-02,  FRACTION OF STEP COMPLETED  0.100    
 STEP TIME COMPLETED       0.100    ,  TOTAL TIME COMPLETED        0.100    


  INCREMENT    23 STARTS. ATTEMPT NUMBER  1, TIME INCREMENT  4.988E-02

  NUMBER OF EQUATIONS =     80220     NUMBER OF FLOATING PT. OPERATIONS =  7.65E+09

     CHECK POINT   START OF SOLVER    

     CHECK POINT  END OF SOLVER       

       ELAPSED USER TIME (SEC)      =  0.70000    
       ELAPSED SYSTEM TIME (SEC)    =   0.0000    
       ELAPSED TOTAL CPU TIME (SEC) =  0.70000    
       ELAPSED WALLCLOCK TIME (SEC) =          1
 

 ***WARNING: SOLVER PROBLEM. NUMERICAL SINGULARITY WHEN PROCESSING NODE 
             COMPOSITEPLATE-1.4 D.O.F. 3 RATIO = 49.3427E+12 .

               CONVERGENCE CHECKS FOR EQUILIBRIUM ITERATION     1


 AVERAGE FORCE                       3.45       TIME AVG. FORCE       0.449    
 LARGEST RESIDUAL FORCE            -5.758E-08   AT NODE       5714   DOF  2
   INSTANCE: COMPOSITEPLATE-1                                                                
 LARGEST INCREMENT OF DISP.         2.743E-03   AT NODE         10   DOF  2
   INSTANCE: COMPOSITEPLATE-1                                                                
 LARGEST CORRECTION TO DISP.       -7.238E-07   AT NODE       5249   DOF  2
   INSTANCE: COMPOSITEPLATE-1                                                                
          THE FORCE     EQUILIBRIUM EQUATIONS HAVE CONVERGED

 AVERAGE MOMENT                     7.286E-17   TIME AVG. MOMENT      5.112E-02
                                                (FROM FORCE     FIELD)
 LARGEST RESIDUAL MOMENT           -1.468E-15   AT NODE      10347   DOF  4
   INSTANCE: COMPOSITEPLATE-1                                                                
 LARGEST INCREMENT OF ROTATION      2.010E-19   AT NODE        448   DOF  5
   INSTANCE: COMPOSITEPLATE-1                                                                
 LARGEST CORRECTION TO ROTATION     4.280E-19   AT NODE        448   DOF  5
   INSTANCE: COMPOSITEPLATE-1                                                                
          THERE IS ZERO MOMENT    EVERYWHERE
          TIME INCREMENT MAY NOW INCREASE TO    7.482E-02

 ITERATION SUMMARY FOR THE INCREMENT:   1 TOTAL ITERATIONS, OF WHICH
   0 ARE SEVERE DISCONTINUITY ITERATIONS AND  1 ARE EQUILIBRIUM ITERATIONS.

 TIME INCREMENT COMPLETED  4.988E-02,  FRACTION OF STEP COMPLETED  0.150    
 STEP TIME COMPLETED       0.150    ,  TOTAL TIME COMPLETED        0.150    


  INCREMENT    24 STARTS. ATTEMPT NUMBER  1, TIME INCREMENT  7.482E-02

  NUMBER OF EQUATIONS =     80220     NUMBER OF FLOATING PT. OPERATIONS =  7.65E+09

     CHECK POINT   START OF SOLVER    

     CHECK POINT  END OF SOLVER       

       ELAPSED USER TIME (SEC)      =  0.80000    
       ELAPSED SYSTEM TIME (SEC)    =   0.0000    
       ELAPSED TOTAL CPU TIME (SEC) =  0.80000    
       ELAPSED WALLCLOCK TIME (SEC) =          1
 

 ***WARNING: SOLVER PROBLEM. NUMERICAL SINGULARITY WHEN PROCESSING NODE 
             COMPOSITEPLATE-1.4 D.O.F. 3 RATIO = 17.7466E+12 .

               CONVERGENCE CHECKS FOR EQUILIBRIUM ITERATION     1


 AVERAGE FORCE                       5.18       TIME AVG. FORCE       0.647    
 LARGEST RESIDUAL FORCE            -1.936E-07   AT NODE       8085   DOF  2
   INSTANCE: COMPOSITEPLATE-1                                                                
 LARGEST INCREMENT OF DISP.         4.115E-03   AT NODE         10   DOF  2
   INSTANCE: COMPOSITEPLATE-1                                                                
 LARGEST CORRECTION TO DISP.       -1.623E-06   AT NODE       5249   DOF  2
   INSTANCE: COMPOSITEPLATE-1                                                                
          THE FORCE     EQUILIBRIUM EQUATIONS HAVE CONVERGED

 AVERAGE MOMENT                     1.075E-16   TIME AVG. MOMENT      7.339E-02
                                                (FROM FORCE     FIELD)
 LARGEST RESIDUAL MOMENT           -1.847E-15   AT NODE      15911   DOF  4
   INSTANCE: COMPOSITEPLATE-1                                                                
 LARGEST INCREMENT OF ROTATION     -2.487E-19   AT NODE      12101   DOF  5
   INSTANCE: COMPOSITEPLATE-1                                                                
 LARGEST CORRECTION TO ROTATION    -3.776E-19   AT NODE      14112   DOF  4
   INSTANCE: COMPOSITEPLATE-1                                                                
          THERE IS ZERO MOMENT    EVERYWHERE
          TIME INCREMENT MAY NOW INCREASE TO    0.112    

 ITERATION SUMMARY FOR THE INCREMENT:   1 TOTAL ITERATIONS, OF WHICH
   0 ARE SEVERE DISCONTINUITY ITERATIONS AND  1 ARE EQUILIBRIUM ITERATIONS.

 TIME INCREMENT COMPLETED  7.482E-02,  FRACTION OF STEP COMPLETED  0.224    
 STEP TIME COMPLETED       0.224    ,  TOTAL TIME COMPLETED        0.224    


  INCREMENT    25 STARTS. ATTEMPT NUMBER  1, TIME INCREMENT  0.112    

  NUMBER OF EQUATIONS =     80220     NUMBER OF FLOATING PT. OPERATIONS =  7.65E+09

     CHECK POINT   START OF SOLVER    

     CHECK POINT  END OF SOLVER       

       ELAPSED USER TIME (SEC)      =  0.80000    
       ELAPSED SYSTEM TIME (SEC)    =   0.0000    
       ELAPSED TOTAL CPU TIME (SEC) =  0.80000    
       ELAPSED WALLCLOCK TIME (SEC) =          1
 

 ***WARNING: SOLVER PROBLEM. NUMERICAL SINGULARITY WHEN PROCESSING NODE 
             COMPOSITEPLATE-1.4 D.O.F. 3 RATIO = 26.6598E+12 .

               CONVERGENCE CHECKS FOR EQUILIBRIUM ITERATION     1


 AVERAGE FORCE                       7.78       TIME AVG. FORCE       0.932    
 LARGEST RESIDUAL FORCE            -1.071E-04   AT NODE       6411   DOF  2
   INSTANCE: COMPOSITEPLATE-1                                                                
 LARGEST INCREMENT OF DISP.         6.173E-03   AT NODE         10   DOF  2
   INSTANCE: COMPOSITEPLATE-1                                                                
 LARGEST CORRECTION TO DISP.       -3.578E-06   AT NODE       5249   DOF  2
   INSTANCE: COMPOSITEPLATE-1                                                                
          THE FORCE     EQUILIBRIUM EQUATIONS HAVE CONVERGED

 AVERAGE MOMENT                     1.719E-16   TIME AVG. MOMENT      0.106    
                                                (FROM FORCE     FIELD)
 LARGEST RESIDUAL MOMENT           -3.786E-15   AT NODE      14110   DOF  4
   INSTANCE: COMPOSITEPLATE-1                                                                
 LARGEST INCREMENT OF ROTATION      4.754E-19   AT NODE        404   DOF  5
   INSTANCE: COMPOSITEPLATE-1                                                                
 LARGEST CORRECTION TO ROTATION     7.771E-19   AT NODE        404   DOF  5
   INSTANCE: COMPOSITEPLATE-1                                                                
          THERE IS ZERO MOMENT    EVERYWHERE
          TIME INCREMENT MAY NOW INCREASE TO    0.168    

 ITERATION SUMMARY FOR THE INCREMENT:   1 TOTAL ITERATIONS, OF WHICH
   0 ARE SEVERE DISCONTINUITY ITERATIONS AND  1 ARE EQUILIBRIUM ITERATIONS.

 TIME INCREMENT COMPLETED  0.112    ,  FRACTION OF STEP COMPLETED  0.337    
 STEP TIME COMPLETED       0.337    ,  TOTAL TIME COMPLETED        0.337    


  INCREMENT    26 STARTS. ATTEMPT NUMBER  1, TIME INCREMENT  0.168    

  NUMBER OF EQUATIONS =     80220     NUMBER OF FLOATING PT. OPERATIONS =  7.65E+09

     CHECK POINT   START OF SOLVER    

     CHECK POINT  END OF SOLVER       

       ELAPSED USER TIME (SEC)      =  0.80000    
       ELAPSED SYSTEM TIME (SEC)    =   0.0000    
       ELAPSED TOTAL CPU TIME (SEC) =  0.80000    
       ELAPSED WALLCLOCK TIME (SEC) =          1
 

 ***WARNING: SOLVER PROBLEM. NUMERICAL SINGULARITY WHEN PROCESSING NODE 
             COMPOSITEPLATE-1.4 D.O.F. 3 RATIO = 20.6393E+12 .

               CONVERGENCE CHECKS FOR EQUILIBRIUM ITERATION     1


 AVERAGE FORCE                       11.6       TIME AVG. FORCE        1.34    
 LARGEST RESIDUAL FORCE             4.228E-03   AT NODE       4093   DOF  2
   INSTANCE: COMPOSITEPLATE-1                                                                
 LARGEST INCREMENT OF DISP.         9.259E-03   AT NODE         10   DOF  2
   INSTANCE: COMPOSITEPLATE-1                                                                
 LARGEST CORRECTION TO DISP.       -8.019E-05   AT NODE       5819   DOF  2
   INSTANCE: COMPOSITEPLATE-1                                                                
          THE FORCE     EQUILIBRIUM EQUATIONS HAVE CONVERGED

 AVERAGE MOMENT                     2.358E-16   TIME AVG. MOMENT      0.152    
                                                (FROM FORCE     FIELD)
 LARGEST RESIDUAL MOMENT            4.297E-15   AT NODE       4282   DOF  4
   INSTANCE: COMPOSITEPLATE-1                                                                
 LARGEST INCREMENT OF ROTATION     -8.272E-19   AT NODE         13   DOF  5
   INSTANCE: COMPOSITEPLATE-1                                                                
 LARGEST CORRECTION TO ROTATION    -1.427E-18   AT NODE        404   DOF  5
   INSTANCE: COMPOSITEPLATE-1                                                                
          THERE IS ZERO MOMENT    EVERYWHERE
          TIME INCREMENT MAY NOW INCREASE TO    0.253    

 ITERATION SUMMARY FOR THE INCREMENT:   1 TOTAL ITERATIONS, OF WHICH
   0 ARE SEVERE DISCONTINUITY ITERATIONS AND  1 ARE EQUILIBRIUM ITERATIONS.

 TIME INCREMENT COMPLETED  0.168    ,  FRACTION OF STEP COMPLETED  0.505    
 STEP TIME COMPLETED       0.505    ,  TOTAL TIME COMPLETED        0.505    


  INCREMENT    27 STARTS. ATTEMPT NUMBER  1, TIME INCREMENT  0.253    

  NUMBER OF EQUATIONS =     80220     NUMBER OF FLOATING PT. OPERATIONS =  7.65E+09

     CHECK POINT   START OF SOLVER    

     CHECK POINT  END OF SOLVER       

       ELAPSED USER TIME (SEC)      =  0.70000    
       ELAPSED SYSTEM TIME (SEC)    =  0.10000    
       ELAPSED TOTAL CPU TIME (SEC) =  0.80000    
       ELAPSED WALLCLOCK TIME (SEC) =          1
 

 ***WARNING: SOLVER PROBLEM. NUMERICAL SINGULARITY WHEN PROCESSING NODE 
             COMPOSITEPLATE-1.4 D.O.F. 3 RATIO = 16.5206E+12 .

               CONVERGENCE CHECKS FOR EQUILIBRIUM ITERATION     1


 AVERAGE FORCE                       17.1       TIME AVG. FORCE        1.93    
 LARGEST RESIDUAL FORCE            -1.376E-02   AT NODE       6445   DOF  2
   INSTANCE: COMPOSITEPLATE-1                                                                
 LARGEST INCREMENT OF DISP.         1.389E-02   AT NODE         10   DOF  2
   INSTANCE: COMPOSITEPLATE-1                                                                
 LARGEST CORRECTION TO DISP.       -1.689E-04   AT NODE          8   DOF  1
   INSTANCE: COMPOSITEPLATE-1                                                                
          FORCE     EQUILIBRIUM NOT ACHIEVED WITHIN TOLERANCE.

 AVERAGE MOMENT                     3.895E-16   TIME AVG. MOMENT      0.219    
                                                (FROM FORCE     FIELD)
 LARGEST RESIDUAL MOMENT            7.409E-15   AT NODE      15877   DOF  4
   INSTANCE: COMPOSITEPLATE-1                                                                
 LARGEST INCREMENT OF ROTATION     -1.369E-18   AT NODE         13   DOF  4
   INSTANCE: COMPOSITEPLATE-1                                                                
 LARGEST CORRECTION TO ROTATION    -2.329E-18   AT NODE         13   DOF  4
   INSTANCE: COMPOSITEPLATE-1                                                                
          THERE IS ZERO MOMENT    EVERYWHERE

  NUMBER OF EQUATIONS =     80220     NUMBER OF FLOATING PT. OPERATIONS =  7.65E+09

     CHECK POINT   START OF SOLVER    

     CHECK POINT  END OF SOLVER       

       ELAPSED USER TIME (SEC)      =  0.80000    
       ELAPSED SYSTEM TIME (SEC)    =   0.0000    
       ELAPSED TOTAL CPU TIME (SEC) =  0.80000    
       ELAPSED WALLCLOCK TIME (SEC) =          1
 

 ***WARNING: SOLVER PROBLEM. NUMERICAL SINGULARITY WHEN PROCESSING NODE 
             COMPOSITEPLATE-1.4 D.O.F. 3 RATIO = 30.2822E+12 .

               CONVERGENCE CHECKS FOR EQUILIBRIUM ITERATION     2


 AVERAGE FORCE                       17.2       TIME AVG. FORCE        1.93    
 LARGEST RESIDUAL FORCE            -4.479E-04   AT NODE       8504   DOF  2
   INSTANCE: COMPOSITEPLATE-1                                                                
 LARGEST INCREMENT OF DISP.         1.389E-02   AT NODE         10   DOF  2
   INSTANCE: COMPOSITEPLATE-1                                                                
 LARGEST CORRECTION TO DISP.        3.846E-06   AT NODE      11375   DOF  2
   INSTANCE: COMPOSITEPLATE-1                                                                
          THE FORCE     EQUILIBRIUM EQUATIONS HAVE CONVERGED

 AVERAGE MOMENT                     3.665E-16   TIME AVG. MOMENT      0.219    
                                                (FROM FORCE     FIELD)
 LARGEST RESIDUAL MOMENT            7.559E-15   AT NODE      10338   DOF  4
   INSTANCE: COMPOSITEPLATE-1                                                                
 LARGEST INCREMENT OF ROTATION     -1.306E-18   AT NODE      12660   DOF  5
   INSTANCE: COMPOSITEPLATE-1                                                                
 LARGEST CORRECTION TO ROTATION     1.855E-18   AT NODE         13   DOF  4
   INSTANCE: COMPOSITEPLATE-1                                                                
          THERE IS ZERO MOMENT    EVERYWHERE

 ITERATION SUMMARY FOR THE INCREMENT:   2 TOTAL ITERATIONS, OF WHICH
   0 ARE SEVERE DISCONTINUITY ITERATIONS AND  2 ARE EQUILIBRIUM ITERATIONS.

 TIME INCREMENT COMPLETED  0.253    ,  FRACTION OF STEP COMPLETED  0.758    
 STEP TIME COMPLETED       0.758    ,  TOTAL TIME COMPLETED        0.758    


  INCREMENT    28 STARTS. ATTEMPT NUMBER  1, TIME INCREMENT  0.242    

  NUMBER OF EQUATIONS =     80220     NUMBER OF FLOATING PT. OPERATIONS =  7.65E+09

     CHECK POINT   START OF SOLVER    

     CHECK POINT  END OF SOLVER       

       ELAPSED USER TIME (SEC)      =  0.70000    
       ELAPSED SYSTEM TIME (SEC)    =  0.10000    
       ELAPSED TOTAL CPU TIME (SEC) =  0.80000    
       ELAPSED WALLCLOCK TIME (SEC) =          0
 

 ***WARNING: SOLVER PROBLEM. NUMERICAL SINGULARITY WHEN PROCESSING NODE 
             COMPOSITEPLATE-1.4 D.O.F. 3 RATIO = 83.1978E+12 .

               CONVERGENCE CHECKS FOR EQUILIBRIUM ITERATION     1


 AVERAGE FORCE                       22.2       TIME AVG. FORCE        2.66    
 LARGEST RESIDUAL FORCE              1.16       AT NODE       4286   DOF  2
   INSTANCE: COMPOSITEPLATE-1                                                                
 LARGEST INCREMENT OF DISP.         1.334E-02   AT NODE         10   DOF  2
   INSTANCE: COMPOSITEPLATE-1                                                                
 LARGEST CORRECTION TO DISP.       -1.724E-04   AT NODE         66   DOF  2
   INSTANCE: COMPOSITEPLATE-1                                                                
          FORCE     EQUILIBRIUM NOT ACHIEVED WITHIN TOLERANCE.

 AVERAGE MOMENT                     4.858E-16   TIME AVG. MOMENT      0.315    
                                                (FROM FORCE     FIELD)
 LARGEST RESIDUAL MOMENT            1.006E-14   AT NODE       1150   DOF  4
   INSTANCE: COMPOSITEPLATE-1                                                                
 LARGEST INCREMENT OF ROTATION     -1.668E-18   AT NODE         16   DOF  5
   INSTANCE: COMPOSITEPLATE-1                                                                
 LARGEST CORRECTION TO ROTATION    -2.315E-18   AT NODE         16   DOF  5
   INSTANCE: COMPOSITEPLATE-1                                                                
          THERE IS ZERO MOMENT    EVERYWHERE

  NUMBER OF EQUATIONS =     80220     NUMBER OF FLOATING PT. OPERATIONS =  7.65E+09

     CHECK POINT   START OF SOLVER    

     CHECK POINT  END OF SOLVER       

       ELAPSED USER TIME (SEC)      =  0.80000    
       ELAPSED SYSTEM TIME (SEC)    =   0.0000    
       ELAPSED TOTAL CPU TIME (SEC) =  0.80000    
       ELAPSED WALLCLOCK TIME (SEC) =          1
 

 ***WARNING: SOLVER PROBLEM. NUMERICAL SINGULARITY WHEN PROCESSING NODE 
             COMPOSITEPLATE-1.4 D.O.F. 3 RATIO = 157.354E+12  .

               CONVERGENCE CHECKS FOR EQUILIBRIUM ITERATION     2


 AVERAGE FORCE                       22.3       TIME AVG. FORCE        2.66    
 LARGEST RESIDUAL FORCE             2.010E-02   AT NODE       8648   DOF  2
   INSTANCE: COMPOSITEPLATE-1                                                                
 LARGEST INCREMENT OF DISP.         1.334E-02   AT NODE         10   DOF  2
   INSTANCE: COMPOSITEPLATE-1                                                                
 LARGEST CORRECTION TO DISP.       -8.937E-06   AT NODE       4249   DOF  2
   INSTANCE: COMPOSITEPLATE-1                                                                
          FORCE     EQUILIBRIUM NOT ACHIEVED WITHIN TOLERANCE.

 AVERAGE MOMENT                     4.642E-16   TIME AVG. MOMENT      0.315    
                                                (FROM FORCE     FIELD)
 LARGEST RESIDUAL MOMENT            8.782E-15   AT NODE      13911   DOF  4
   INSTANCE: COMPOSITEPLATE-1                                                                
 LARGEST INCREMENT OF ROTATION      2.686E-18   AT NODE       1886   DOF  4
   INSTANCE: COMPOSITEPLATE-1                                                                
 LARGEST CORRECTION TO ROTATION    -3.971E-18   AT NODE        189   DOF  4
   INSTANCE: COMPOSITEPLATE-1                                                                
          THERE IS ZERO MOMENT    EVERYWHERE

  NUMBER OF EQUATIONS =     80220     NUMBER OF FLOATING PT. OPERATIONS =  7.65E+09

     CHECK POINT   START OF SOLVER    

     CHECK POINT  END OF SOLVER       

       ELAPSED USER TIME (SEC)      =  0.80000    
       ELAPSED SYSTEM TIME (SEC)    =   0.0000    
       ELAPSED TOTAL CPU TIME (SEC) =  0.80000    
       ELAPSED WALLCLOCK TIME (SEC) =          1
 

 ***WARNING: SOLVER PROBLEM. NUMERICAL SINGULARITY WHEN PROCESSING NODE 
             COMPOSITEPLATE-1.4 D.O.F. 3 RATIO = 239.095E+12  .

               CONVERGENCE CHECKS FOR EQUILIBRIUM ITERATION     3


 AVERAGE FORCE                       22.3       TIME AVG. FORCE        2.66    
 LARGEST RESIDUAL FORCE            -1.703E-04   AT NODE       8648   DOF  2
   INSTANCE: COMPOSITEPLATE-1                                                                
 LARGEST INCREMENT OF DISP.         1.334E-02   AT NODE         10   DOF  2
   INSTANCE: COMPOSITEPLATE-1                                                                
 LARGEST CORRECTION TO DISP.        4.130E-07   AT NODE       8648   DOF  2
   INSTANCE: COMPOSITEPLATE-1                                                                
          THE FORCE     EQUILIBRIUM EQUATIONS HAVE CONVERGED

 AVERAGE MOMENT                     4.606E-16   TIME AVG. MOMENT      0.315    
                                                (FROM FORCE     FIELD)
 LARGEST RESIDUAL MOMENT            8.435E-15   AT NODE      12767   DOF  4
   INSTANCE: COMPOSITEPLATE-1                                                                
 LARGEST INCREMENT OF ROTATION      2.881E-18   AT NODE        545   DOF  4
   INSTANCE: COMPOSITEPLATE-1                                                                
 LARGEST CORRECTION TO ROTATION     3.677E-18   AT NODE        545   DOF  4
   INSTANCE: COMPOSITEPLATE-1                                                                
          THERE IS ZERO MOMENT    EVERYWHERE

 ITERATION SUMMARY FOR THE INCREMENT:   3 TOTAL ITERATIONS, OF WHICH
   0 ARE SEVERE DISCONTINUITY ITERATIONS AND  3 ARE EQUILIBRIUM ITERATIONS.

 TIME INCREMENT COMPLETED  0.242    ,  FRACTION OF STEP COMPLETED   1.00    
 STEP TIME COMPLETED        1.00    ,  TOTAL TIME COMPLETED         1.00    


          THE ANALYSIS HAS BEEN COMPLETED



     ANALYSIS SUMMARY:
     TOTAL OF         28  INCREMENTS
                       0  CUTBACKS IN AUTOMATIC INCREMENTATION
                      32  ITERATIONS INCLUDING CONTACT ITERATIONS IF PRESENT
                      32  PASSES THROUGH THE EQUATION SOLVER OF WHICH 
                      32  INVOLVE MATRIX DECOMPOSITION, INCLUDING
                       0  DECOMPOSITION(S) OF THE MASS MATRIX
                       1  REORDERING OF EQUATIONS TO MINIMIZE WAVEFRONT
                       0  ADDITIONAL RESIDUAL EVALUATIONS FOR LINE SEARCHES
                       0  ADDITIONAL OPERATOR EVALUATIONS FOR LINE SEARCHES
                       2  WARNING MESSAGES DURING USER INPUT PROCESSING
                      53  WARNING MESSAGES DURING ANALYSIS
                      34  ANALYSIS WARNINGS ARE NUMERICAL PROBLEM MESSAGES
                       0  ANALYSIS WARNINGS ARE NEGATIVE EIGENVALUE MESSAGES
                       0  ERROR MESSAGES



     JOB TIME SUMMARY
       USER TIME (SEC)      =   87.500    
       SYSTEM TIME (SEC)    =   4.5000    
       TOTAL CPU TIME (SEC) =   92.000    
       WALLCLOCK TIME (SEC) =         92
