 Abaqus/Standard 3DEXPERIENCE R2017x                  DATE 21-Apr-2019 TIME 20:23:49
 SUMMARY OF JOB INFORMATION:
 STEP  INC ATT SEVERE EQUIL TOTAL  TOTAL      STEP       INC OF       DOF    IF
               DISCON ITERS ITERS  TIME/    TIME/LPF    TIME/LPF    MONITOR RIKS
               ITERS               FREQ
   1     1   1     0     2     2  1.00e-005  1.00e-005  1.000e-005
   1     2   1     0     1     1  2.00e-005  2.00e-005  1.000e-005
   1     3   1     0     1     1  3.50e-005  3.50e-005  1.500e-005
   1     4   1     0     1     1  5.75e-005  5.75e-005  2.250e-005
   1     5   1     0     1     1  9.13e-005  9.13e-005  3.375e-005
   1     6   1     0     1     1  0.000142   0.000142   5.063e-005
   1     7   1     0     1     1  0.000218   0.000218   7.594e-005
   1     8   1     0     1     1  0.000332   0.000332   0.0001139 
   1     9   1     0     1     1  0.000503   0.000503   0.0001709 
   1    10   1     0     1     1  0.000759   0.000759   0.0002563 
   1    11   1     0     1     1  0.00114    0.00114    0.0003844 
   1    12   1     0     1     1  0.00172    0.00172    0.0005767 
   1    13   1     0     1     1  0.00258    0.00258    0.0008650 
   1    14   1     0     1     1  0.00388    0.00388    0.001297  
   1    15   1     0     1     1  0.00583    0.00583    0.001946  
   1    16   1     0     1     1  0.00875    0.00875    0.002919  
   1    17   1     0     1     1  0.0131     0.0131     0.004379  
   1    18   1     0     1     1  0.0197     0.0197     0.006568  
   1    19   1     0     1     1  0.0295     0.0295     0.009853  
   1    20   1     0     1     1  0.0443     0.0443     0.01478   
   1    21   1     0     1     1  0.0665     0.0665     0.02217   
   1    22   1     0     1     1  0.0997     0.0997     0.03325   
   1    23   1     0     1     1  0.150      0.150      0.04988   
   1    24   1     0     1     1  0.224      0.224      0.07482   
   1    25   1     0     2     2  0.337      0.337      0.1122    
   1    26   1     0     2     2  0.505      0.505      0.1683    
   1    27   1     0     3     3  0.758      0.758      0.2525    
   1    28   1U    0     4     4  0.758      0.758      0.2425    
   1    28   2     0     3     3  0.818      0.818      0.06062   
   1    29   1U    0     4     4  0.818      0.818      0.09093   
   1    29   2     0     3     3  0.841      0.841      0.02273   
   1    30   1U    0     7     7  0.841      0.841      0.03410   
   1    30   2     0     2     2  0.849      0.849      0.008525  
   1    31   1     0     2     2  0.862      0.862      0.01279   
   1    32   1U    0     4     4  0.862      0.862      0.01918   
   1    32   2     0     1     1  0.867      0.867      0.004795  
   1    33   1U    0     5     5  0.867      0.867      0.007193  
   1    33   2     0     1     1  0.869      0.869      0.001798  
   1    34   1U    0     6     6  0.869      0.869      0.002697  
   1    34   2     0     1     1  0.869      0.869      0.0006743 
   1    35   1     0     1     1  0.870      0.870      0.001011  
   1    36   1     0     1     1  0.872      0.872      0.001517  
   1    37   1     0     1     1  0.874      0.874      0.002276  
   1    38   1     0     1     1  0.878      0.878      0.003414  
   1    39   1     0     1     1  0.883      0.883      0.005120  
   1    40   1U    0     4     4  0.883      0.883      0.007681  
   1    40   2     0     1     1  0.885      0.885      0.001920  
   1    41   1U    0     4     4  0.885      0.885      0.002880  
   1    41   2     0     1     1  0.885      0.885      0.0007201 
   1    42   1     0     1     1  0.887      0.887      0.001080  
   1    43   1U    0     4     4  0.887      0.887      0.001620  
   1    43   2     0     1     1  0.887      0.887      0.0004050 
   1    44   1     0     1     1  0.888      0.888      0.0006076 
   1    45   1     0     1     1  0.888      0.888      0.0009113 
   1    46   1U    0     4     4  0.888      0.888      0.001367  
   1    46   2     0     1     1  0.889      0.889      0.0003418 
   1    47   1     0     1     1  0.889      0.889      0.0005126 
   1    48   1     0     1     1  0.890      0.890      0.0007689 
   1    49   1U    0     5     5  0.890      0.890      0.001153  
   1    49   2     0     1     1  0.890      0.890      0.0002884 
   1    50   1     0     1     1  0.891      0.891      0.0004325 
   1    51   1U    0     4     4  0.891      0.891      0.0006488 
   1    51   2     0     1     1  0.891      0.891      0.0001622 
   1    52   1     0     1     1  0.891      0.891      0.0002433 
   1    53   1     0     1     1  0.892      0.892      0.0003649 
   1    54   1     0     1     1  0.892      0.892      0.0005474 
   1    55   1U    0     7     7  0.892      0.892      0.0008211 
   1    55   2     0     1     1  0.892      0.892      0.0002053 
   1    56   1     0     1     1  0.893      0.893      0.0003079 
   1    57   1     0     1     1  0.893      0.893      0.0004619 
   1    58   1     0     3     3  0.894      0.894      0.0006928 
   1    59   1U    0     5     5  0.894      0.894      0.001039  
   1    59   2     0     1     1  0.894      0.894      0.0002598 
   1    60   1     0     1     1  0.894      0.894      0.0003897 
   1    61   1     0     2     2  0.895      0.895      0.0005846 
   1    62   1U    0     4     4  0.895      0.895      0.0008769 
   1    62   2     0     1     1  0.895      0.895      0.0002192 
   1    63   1     0     1     1  0.896      0.896      0.0003288 
   1    64   1     0     3     3  0.896      0.896      0.0004932 
   1    65   1U    0     4     4  0.896      0.896      0.0007398 
   1    65   2     0     1     1  0.896      0.896      0.0001850 
   1    66   1     0     1     1  0.897      0.897      0.0002774 
   1    67   1     0     2     2  0.897      0.897      0.0004162 
   1    68   1U    0     5     5  0.897      0.897      0.0006242 
   1    68   2     0     1     1  0.897      0.897      0.0001561 
   1    69   1     0     1     1  0.897      0.897      0.0002341 
   1    70   1     0     4     4  0.898      0.898      0.0003511 
   1    71   1U    0     4     4  0.898      0.898      0.0005267 
   1    71   2     0     1     1  0.898      0.898      0.0001317 
   1    72   1     0     1     1  0.898      0.898      0.0001975 
   1    73   1     0     2     2  0.898      0.898      0.0002963 
   1    74   1     0     2     2  0.899      0.899      0.0004444 
   1    75   1     0    16    16  0.899      0.899      0.0006666 
   1    76   1     0     2     2  0.900      0.900      0.0005000 
   1    77   1     0     3     3  0.900      0.900      0.0005000 
   1    78   1     0     8     8  0.901      0.901      0.0007499 
   1    79   1     0     4     4  0.902      0.902      0.0007499 
   1    80   1U    0     9     9  0.902      0.902      0.0007499 
   1    80   2     0     7     7  0.902      0.902      0.0003750 
   1    81   1     0     3     3  0.903      0.903      0.0003750 
   1    82   1U    0     9     9  0.903      0.903      0.0003750 
   1    82   2     0     2     2  0.903      0.903      0.0001875 
   1    83   1     0     9     9  0.903      0.903      0.0002812 
   1    84   1     0     2     2  0.903      0.903      0.0002812 
   1    85   1     0     4     4  0.904      0.904      0.0002812 
   1    86   1     0     3     3  0.904      0.904      0.0004218 
   1    87   1     0     3     3  0.905      0.905      0.0006328 
   1    88   1U    0     4     4  0.905      0.905      0.0009491 
   1    88   2     0     3     3  0.905      0.905      0.0002373 
   1    89   1     0     2     2  0.905      0.905      0.0003559 
   1    90   1     0     3     3  0.906      0.906      0.0005339 
   1    91   1     0     3     3  0.907      0.907      0.0008008 
   1    92   1U    0     4     4  0.907      0.907      0.001201  
   1    92   2     0     2     2  0.907      0.907      0.0003003 
   1    93   1     0     2     2  0.907      0.907      0.0004505 
   1    94   1     0     3     3  0.908      0.908      0.0006757 
   1    95   1U    0     9     9  0.908      0.908      0.001014  
   1    95   2     0     5     5  0.909      0.909      0.0005068 
   1    96   1     0     2     2  0.909      0.909      0.0005068 
   1    97   1     0     8     8  0.910      0.910      0.0005068 
   1    98   1     0     2     2  0.910      0.910      0.0005068 
   1    99   1     0     3     3  0.911      0.911      0.0005068 
   1   100   1     0     4     4  0.911      0.911      0.0007602 
   1   101   1U    0     4     4  0.911      0.911      0.001140  
   1   101   2     0     2     2  0.912      0.912      0.0002851 
   1   102   1     0     2     2  0.912      0.912      0.0004276 
   1   103   1     0     5     5  0.913      0.913      0.0006414 
   1   104   1     0     3     3  0.913      0.913      0.0006414 
   1   105   1     0    12    12  0.914      0.914      0.0006414 
   1   106   1     0     3     3  0.915      0.915      0.0004810 
   1   107   1     0     3     3  0.915      0.915      0.0004810 
   1   108   1     0     8     8  0.916      0.916      0.0007216 
   1   109   1     0     3     3  0.916      0.916      0.0007216 
   1   110   1     0     3     3  0.917      0.917      0.0007216 
   1   111   1     0     3     3  0.918      0.918      0.001082  
   1   112   1     0     6     6  0.920      0.920      0.001624  
   1   113   1     0     9     9  0.921      0.921      0.001624  
   1   114   1     0     7     7  0.923      0.923      0.001624  
   1   115   1     0     5     5  0.925      0.925      0.001624  
   1   116   1U    0     9     9  0.925      0.925      0.001624  
   1   116   2     0     3     3  0.926      0.926      0.0008118 
   1   117   1     0     5     5  0.926      0.926      0.0008118 
   1   118   1     0     2     2  0.927      0.927      0.0008118 
   1   119   1     0     2     2  0.928      0.928      0.0008118 
   1   120   1     0     5     5  0.929      0.929      0.001218  
   1   121   1     0     6     6  0.930      0.930      0.001218  
   1   122   1     0     2     2  0.932      0.932      0.001218  
   1   123   1     0     3     3  0.933      0.933      0.001218  
   1   124   1     0     5     5  0.935      0.935      0.001826  
   1   125   1     0     6     6  0.936      0.936      0.001826  
   1   126   1U    0     4     4  0.936      0.936      0.001826  
   1   126   2     0     4     4  0.937      0.937      0.0004566 
   1   127   1U    0     4     4  0.937      0.937      0.0004566 
   1   127   2     0     1     1  0.937      0.937      0.0001142 
   1   128   1     0     1     1  0.937      0.937      0.0001712 
   1   129   1     0     2     2  0.937      0.937      0.0002568 
   1   130   1     0     1     1  0.938      0.938      0.0003853 
   1   131   1     0     2     2  0.938      0.938      0.0005779 
   1   132   1     0     2     2  0.939      0.939      0.0008669 
   1   133   1     0     2     2  0.941      0.941      0.001300  
   1   134   1U    0     4     4  0.941      0.941      0.001950  
   1   134   2     0     3     3  0.941      0.941      0.0004876 
   1   135   1     0     2     2  0.942      0.942      0.0007314 
   1   136   1     0     2     2  0.943      0.943      0.001097  
   1   137   1     0     7     7  0.945      0.945      0.001646  
   1   138   1     0     6     6  0.946      0.946      0.001646  
   1   139   1U    0     5     5  0.946      0.946      0.001646  
   1   139   2     0     1     1  0.947      0.947      0.0004114 
   1   140   1     0     1     1  0.947      0.947      0.0004114 
   1   141   1     0     1     1  0.948      0.948      0.0006171 
   1   142   1     0     2     2  0.949      0.949      0.0009257 
   1   143   1     0     3     3  0.950      0.950      0.001389  
   1   144   1U    0     4     4  0.950      0.950      0.002083  
   1   144   2     0     1     1  0.951      0.951      0.0005207 
   1   145   1     0     2     2  0.951      0.951      0.0007811 
   1   146   1U    0     9     9  0.951      0.951      0.001172  
   1   146   2     0     1     1  0.952      0.952      0.0005858 
   1   147   1     0     4     4  0.953      0.953      0.0008787 
   1   148   1     0     9     9  0.954      0.954      0.001318  
   1   149   1U    0     4     4  0.954      0.954      0.001318  
   1   149   2     0     1     1  0.954      0.954      0.0003295 
   1   150   1     0     1     1  0.955      0.955      0.0003295 
   1   151   1     0     1     1  0.955      0.955      0.0004943 
   1   152   1     0     3     3  0.956      0.956      0.0007414 
   1   153   1U    0     5     5  0.956      0.956      0.001112  
   1   153   2     0     1     1  0.956      0.956      0.0002780 
   1   154   1     0     2     2  0.957      0.957      0.0004170 
   1   155   1     0     3     3  0.957      0.957      0.0006256 
   1   156   1U    0     5     5  0.957      0.957      0.0009383 
   1   156   2     0     1     1  0.958      0.958      0.0002346 
   1   157   1     0     2     2  0.958      0.958      0.0003519 
   1   158   1     0     2     2  0.958      0.958      0.0005278 
   1   159   1     0     5     5  0.959      0.959      0.0007917 
   1   160   1     0     3     3  0.960      0.960      0.0007917 
   1   161   1     0     5     5  0.961      0.961      0.0007917 
   1   162   1     0     6     6  0.962      0.962      0.0007917 
   1   163   1     0     5     5  0.962      0.962      0.0007917 
   1   164   1     0     5     5  0.963      0.963      0.0007917 
   1   165   1     0     5     5  0.964      0.964      0.0007917 
   1   166   1     0     6     6  0.965      0.965      0.0007917 
   1   167   1     0    10    10  0.966      0.966      0.0007917 
   1   168   1     0     6     6  0.966      0.966      0.0007917 
   1   169   1     0     4     4  0.967      0.967      0.0007917 
   1   170   1     0     5     5  0.968      0.968      0.0007917 
   1   171   1     0     6     6  0.969      0.969      0.0007917 
   1   172   1     0     3     3  0.969      0.969      0.0007917 
   1   173   1     0     8     8  0.970      0.970      0.0007917 
   1   174   1     0     7     7  0.971      0.971      0.0007917 
   1   175   1     0     3     3  0.972      0.972      0.0007917 
   1   176   1     0     5     5  0.973      0.973      0.0007917 
   1   177   1     0     4     4  0.973      0.973      0.0007917 
   1   178   1     0     8     8  0.974      0.974      0.0007917 
   1   179   1     0     5     5  0.975      0.975      0.0007917 
   1   180   1     0    10    10  0.976      0.976      0.0007917 
   1   181   1     0    10    10  0.977      0.977      0.0007917 
   1   182   1     0     4     4  0.977      0.977      0.0007917 
   1   183   1     0     7     7  0.978      0.978      0.0007917 
   1   184   1     0     8     8  0.979      0.979      0.0007917 
   1   185   1     0     8     8  0.980      0.980      0.0007917 
   1   186   1     0     2     2  0.981      0.981      0.0007917 
   1   187   1     0     6     6  0.981      0.981      0.0007917 
   1   188   1     0     4     4  0.982      0.982      0.0007917 
   1   189   1     0     2     2  0.983      0.983      0.0007917 
   1   190   1U    0     4     4  0.983      0.983      0.001188  
   1   190   2     0     1     1  0.983      0.983      0.0002969 
   1   191   1     0     2     2  0.984      0.984      0.0004453 
   1   192   1U    0     4     4  0.984      0.984      0.0006680 
   1   192   2     0     1     1  0.984      0.984      0.0001670 
   1   193   1     0     2     2  0.984      0.984      0.0002505 
   1   194   1     0     2     2  0.984      0.984      0.0003758 
   1   195   1     0    10    10  0.985      0.985      0.0005636 
   1   196   1     0     2     2  0.986      0.986      0.0005636 
   1   197   1     0     2     2  0.986      0.986      0.0005636 
   1   198   1     0     4     4  0.987      0.987      0.0008455 
   1   199   1U    0     5     5  0.987      0.987      0.001268  
   1   199   2     0     1     1  0.987      0.987      0.0003170 
   1   200   1     0     1     1  0.988      0.988      0.0004756 
   1   201   1U    0     9     9  0.988      0.988      0.0007133 
   1   201   2     0     4     4  0.988      0.988      0.0003567 
   1   202   1     0     2     2  0.989      0.989      0.0005350 
   1   203   1     0     2     2  0.990      0.990      0.0008025 
   1   204   1     0     3     3  0.991      0.991      0.001204  
   1   205   1U    0     7     7  0.991      0.991      0.001806  
   1   205   2     0     3     3  0.991      0.991      0.0004514 
   1   206   1     0     2     2  0.992      0.992      0.0006771 
   1   207   1     0     4     4  0.993      0.993      0.001016  
   1   208   1     0     4     4  0.994      0.994      0.001524  
   1   209   1U    0     4     4  0.994      0.994      0.002285  
   1   209   2     0     1     1  0.995      0.995      0.0005713 
   1   210   1     0     3     3  0.996      0.996      0.0008570 
   1   211   1U    0     4     4  0.996      0.996      0.001285  
   1   211   2     0     4     4  0.996      0.996      0.0003214 
   1   212   1     0     2     2  0.997      0.997      0.0004821 
   1   213   1     0     2     2  0.997      0.997      0.0007231 
   1   214   1     0     4     4  0.998      0.998      0.001085  
   1   215   1U    0     6     6  0.998      0.998      0.001588  
   1   215   2     0     1     1  0.999      0.999      0.0003971 
   1   216   1     0     2     2  0.999      0.999      0.0005956 
   1   217   1     0     3     3  1.00       1.00       0.0005956 
                          
 THE ANALYSIS HAS COMPLETED SUCCESSFULLY
